********************************************************************************
* Library          : group8
* Cell             : nand
* View             : schematic
* View Search List : auCdl schematic symbol
* View Stop List   : auCdl
********************************************************************************
.subckt nand A B Y
*.PININFO A:I B:I Y:O
MM1 net4 B gnd! nmos
MM0 Y A net4 nmos
MM3 Y B vdd! pmos
MM2 Y A vdd! pmos
.ends nand

