********************************************************************************
* Library          : group8
* Cell             : inv
* View             : schematic
* View Search List : hspice hspiceD schematic spice veriloga
* View Stop List   : hspice hspiceD
********************************************************************************
.subckt inv in out
m0 out in vdd! pfet nfin=2 adeo=5.67e-16 aseo=5.67e-16 pdeo=117n pseo=117n
m1 out in gnd! nfet nfin=2 adeo=5.67e-16 aseo=5.67e-16 pdeo=117n pseo=117n
.ends inv

