*PrimeWave Design Environment Based on Custom Infrastructure
*Version W-2024.09-SP1-2
*Fri Mar 28 18:35:55 2025

.global gnd! vdd!
********************************************************************************
* Library          : group8
* Cell             : tspc_pos_ff
* View             : schematic
* View Search List : hspice hspiceD schematic spice veriloga
* View Stop List   : hspice hspiceD
********************************************************************************
.subckt tspc_pos_ff d q phi
m16 q net26 gnd! nfet nfin=2 adeo=5.67e-16 aseo=5.67e-16 pdeo=117n pseo=117n
m4 net26 phi net14 nfet nfin=2 adeo=5.67e-16 aseo=5.67e-16 pdeo=117n pseo=117n
m3 net27 net17 net11 nfet nfin=2 adeo=5.67e-16 aseo=5.67e-16 pdeo=117n pseo=117n
m2 net14 net27 gnd! nfet nfin=2 adeo=5.67e-16 aseo=5.67e-16 pdeo=117n pseo=117n
m1 net11 phi gnd! nfet nfin=2 adeo=5.67e-16 aseo=5.67e-16 pdeo=117n pseo=117n
m0 net17 d gnd! nfet nfin=2 adeo=5.67e-16 aseo=5.67e-16 pdeo=117n pseo=117n
m15 q net26 vdd! pfet nfin=2 adeo=5.67e-16 aseo=5.67e-16 pdeo=117n pseo=117n
m8 net26 net27 vdd! pfet nfin=2 adeo=5.67e-16 aseo=5.67e-16 pdeo=117n pseo=117n
m7 net27 phi vdd! pfet nfin=2 adeo=5.67e-16 aseo=5.67e-16 pdeo=117n pseo=117n
m6 net20 d vdd! pfet nfin=2 adeo=5.67e-16 aseo=5.67e-16 pdeo=117n pseo=117n
m5 net17 phi net20 pfet nfin=2 adeo=5.67e-16 aseo=5.67e-16 pdeo=117n pseo=117n
.ends tspc_pos_ff

********************************************************************************
* Library          : group8
* Cell             : tspc_pos_ff_tb
* View             : schematic
* View Search List : hspice hspiceD schematic spice veriloga
* View Stop List   : hspice hspiceD
********************************************************************************
xi0 d q phi tspc_pos_ff
v2 vdd! gnd! dc='VDD_VAL'
v5 phi gnd! dc=0 pulse ( 'VDD_VAL' 0 0 5p 5p 5p 20p )
v4 d gnd! dc=0 pulse ( 'VDD_VAL' 0 0 5p 5p 20p 50p )

