********************************************************************************
* Library          : group8
* Cell             : buffer_highdrive
* View             : schematic
* View Search List : auCdl schematic symbol
* View Stop List   : auCdl
********************************************************************************
.subckt buffer_highdrive in out
*.PININFO in:I out:O
XI17 net24 out invx4
XI16 in net24 invx4
.ends buffer_highdrive

