********************************************************************************
* Library          : group8
* Cell             : memory_array_static_column_decoder_test
* View             : starrc_C
* View Search List : starrc_C hspice hspiceD schematic spice veriloga
* View Stop List   : hspice hspiceD
********************************************************************************
.subckt memory_array_static_column_decoder_test a<0> a<1> a<2> a<3> a<4> clk
+ d<0> d<1> d<2> d<3> q<0> q<1> q<2> q<3> wenb
cg2646_1 ln_x3309053b6|x3309053b947|16 0  c=8.84605e-18
cg2645_1 ln_x3309053b6|x3309053b947|15 0  c=8.85016e-18
cg2635_1 ln_x3309053b6|x3309053b946|16 0  c=8.84605e-18
cg2634_1 ln_x3309053b6|x3309053b946|15 0  c=8.85016e-18
cg2560_1 ln_x3309053b6|58 0  c=8.84566e-18
cg2559_1 ln_x3309053b6|57 0  c=8.83525e-18
cg2558_1 ln_x3309053b6|56 0  c=8.84483e-18
cg2557_1 ln_x3309053b6|55 0  c=8.88368e-18
cg2556_1 i217|i0|net12 0  c=8.0182e-17
cg2555_1 i217|i1|net12 0  c=8.02828e-17
cg2554_1 i217|i1|net10 0  c=7.78009e-17
cg2553_1 i217|i1|net19 0  c=5.83251e-17
cg2552_1 ln_x3309053b6|50 0  c=9.76228e-18
cg2551_1 ln_x3309053b6|49 0  c=9.5799e-18
cg2550_1 ln_x3309053b6|48 0  c=9.7619e-18
cg2549_1 i217|net46 0  c=1.59549e-16
cg2548_1 i217|net49 0  c=1.57645e-16
cg2547_1 i217|net58 0  c=1.43877e-16
cg2546_1 i217|net61 0  c=1.43316e-16
cg2545_1 i217|net64 0  c=1.43269e-16
cg2544_1 i217|net43 0  c=1.63691e-16
cg2543_1 i217|net85 0  c=9.38352e-17
cg2542_1 i217|net81 0  c=6.29674e-17
cg2541_1 i217|net82 0  c=1.07514e-16
cg2540_1 i217|net86 0  c=1.08252e-16
cg2539_1 i217|net88 0  c=1.11274e-16
cg2343_1 ln_x3309053b336|99 0  c=8.86859e-18
cg2342_1 ln_x3309053b336|98 0  c=8.82563e-18
cg2341_1 ln_x3309053b336|97 0  c=8.84215e-18
cg2340_1 ln_x3309053b336|96 0  c=8.84668e-18
cg2339_1 ln_x3309053b336|95 0  c=8.86611e-18
cg2338_1 ln_x3309053b336|94 0  c=8.8434e-18
cg2337_1 ln_x3309053b336|93 0  c=8.83892e-18
cg2336_1 ln_x3309053b336|92 0  c=8.86734e-18
cg2335_1 i202|i80|net24 0  c=1.21605e-16
cg2334_1 i202|i82|net24 0  c=1.22393e-16
cg2333_1 i202|i76|net24 0  c=1.21607e-16
cg2332_1 i202|i79|net24 0  c=1.21608e-16
cg2331_1 i202|i78|net24 0  c=1.21609e-16
cg2330_1 i202|i75|net24 0  c=1.21593e-16
cg2329_1 i202|i77|net24 0  c=1.21469e-16
cg2328_1 ln_x3309053b336|83 0  c=9.33384e-18
cg2327_1 ln_x3309053b336|82 0  c=9.41596e-18
cg2326_1 ln_x3309053b336|81 0  c=9.33384e-18
cg2325_1 ln_x3309053b336|80 0  c=9.33384e-18
cg2324_1 ln_x3309053b336|79 0  c=9.33384e-18
cg2323_1 ln_x3309053b336|78 0  c=9.33384e-18
cg2322_1 ln_x3309053b336|77 0  c=9.33384e-18
cg2321_1 ln_x3309053b336|76 0  c=9.33384e-18
cg2320_1 i202|net204 0  c=8.47715e-17
cg2319_1 i202|net206 0  c=8.61271e-17
cg2318_1 i202|net208 0  c=8.59948e-17
cg2317_1 i202|net210 0  c=8.65608e-17
cg2316_1 i202|net205 0  c=8.58582e-17
cg2315_1 i202|net207 0  c=8.5398e-17
cg2314_1 i202|net209 0  c=8.54413e-17
cg2313_1 i202|net212 0  c=8.61744e-17
cg2312_1 i202|net214 0  c=8.63526e-17
cg2311_1 i202|net219 0  c=8.63519e-17
cg2310_1 i202|net211 0  c=8.54158e-17
cg2309_1 i202|net213 0  c=8.55267e-17
cg2308_1 i202|net215 0  c=8.55984e-17
cg2307_1 i202|net218 0  c=8.56929e-17
cg2306_1 i202|net203 0  c=2.9093e-16
cg2305_1 i202|net196 0  c=2.33442e-16
cg2304_1 i202|net216 0  c=8.65884e-17
cg2303_1 i202|i109|net24 0  c=1.47815e-16
cg2302_1 i202|net201 0  c=3.11041e-16
cg2301_1 i202|net130 0  c=1.33623e-16
cg2300_1 i202|net133 0  c=1.35713e-16
cg2299_1 i202|net140 0  c=1.35684e-16
cg2298_1 i202|net147 0  c=1.35628e-16
cg2297_1 i202|net154 0  c=1.35758e-16
cg2296_1 i202|net161 0  c=1.35751e-16
cg2295_1 i202|net168 0  c=1.35668e-16
cg2289_1 ln_x3309053b336|106 0  c=8.82107e-18
cg2288_1 ln_x3309053b336|105 0  c=9.10246e-18
cg2287_1 ln_x3309053b336|104 0  c=8.85893e-18
cg2286_1 ln_x3309053b336|103 0  c=8.84922e-18
cg2285_1 ln_x3309053b336|102 0  c=8.83876e-18
cg2284_1 ln_x3309053b336|101 0  c=8.88433e-18
cg2283_1 ln_x3309053b336|100 0  c=8.85001e-18
cg2191_1 i218|i0|net4 0  c=6.11967e-17
cg2190_1 i218|i20|net4 0  c=6.98585e-17
cg2189_1 i218|i19|net4 0  c=6.94241e-17
cg2188_1 ln_x3309053b25|66 0  c=9.36656e-18
cg2187_1 ln_x3309053b25|65 0  c=9.367e-18
cg2186_1 i218|i51|net4 0  c=7.56294e-17
cg2185_1 i218|i50|net4 0  c=7.67168e-17
cg2184_1 i218|i49|net4 0  c=7.54682e-17
cg2183_1 i218|i48|net4 0  c=7.13573e-17
cg2182_1 i218|i47|net4 0  c=7.48264e-17
cg2181_1 i218|i46|net4 0  c=7.28713e-17
cg2180_1 i218|i14|net4 0  c=8.48489e-17
cg2179_1 i218|i8|net4 0  c=8.48139e-17
cg2178_1 i218|i21|net4 0  c=8.47954e-17
cg2177_1 i218|i66|net4 0  c=7.73823e-17
cg2176_1 i218|i67|net4 0  c=7.41903e-17
cg2175_1 i218|i68|net4 0  c=7.96703e-17
cg2174_1 i218|i71|net4 0  c=7.43077e-17
cg2173_1 i218|i70|net4 0  c=7.78081e-17
cg2172_1 i218|i69|net4 0  c=7.73428e-17
cg2171_1 i218|net143 0  c=7.70313e-17
cg2170_1 i218|net144 0  c=8.24261e-17
cg2169_1 i218|net137 0  c=7.38698e-17
cg2168_1 i218|net141 0  c=7.29971e-17
cg2167_1 i218|net139 0  c=8.31835e-17
cg2166_1 i218|net59 0  c=1.65908e-16
cg2165_1 i218|net21 0  c=1.41951e-16
cg2164_1 i218|net62 0  c=9.48866e-17
cg2163_1 i218|net114 0  c=7.69366e-17
cg2162_1 i218|net115 0  c=8.13712e-17
cg2161_1 i218|net39 0  c=8.05192e-17
cg2160_1 i218|net111 0  c=8.03442e-17
cg2159_1 i218|net154 0  c=9.1308e-17
cg2158_1 i218|net116 0  c=8.13278e-17
cg2157_1 i218|net110 0  c=8.05188e-17
cg2140_1 ln_x3309053b24|52 0  c=8.8066e-18
cg2139_1 ln_x3309053b24|51 0  c=8.85809e-18
cg2138_1 ln_x3309053b24|50 0  c=8.8522e-18
cg2137_1 ln_x3309053b24|49 0  c=8.84085e-18
cg2136_1 ln_x3309053b24|48 0  c=9.64416e-18
cg2135_1 ln_x3309053b24|47 0  c=9.58437e-18
cg2134_1 ln_x3309053b24|46 0  c=9.76718e-18
cg2133_1 i249|net7 0  c=9.14645e-17
cg2132_1 i249|net8 0  c=8.88051e-17
cg2131_1 i249|net3 0  c=1.12963e-16
cg2130_1 i249|net4 0  c=1.1518e-16
cg2129_1 i249|net2 0  c=1.00592e-16
cg2128_1 i249|net5 0  c=1.00403e-16
cg2101_1 ln_x3309053b207|95 0  c=9.11341e-18
cg2100_1 ln_x3309053b207|94 0  c=9.08831e-18
cg2099_1 ln_x3309053b207|93 0  c=9.12295e-18
cg2098_1 ln_x3309053b207|92 0  c=9.14681e-18
cg2097_1 ln_x3309053b207|91 0  c=9.42771e-18
cg2096_1 ln_x3309053b207|90 0  c=9.21674e-18
cg2095_1 ln_x3309053b207|89 0  c=9.39506e-18
cg2094_1 ln_x3309053b207|88 0  c=9.19963e-18
cg2061_1 i246|i6|w3 0  c=1.15346e-16
cg2060_1 i246|i6|w2 0  c=1.14708e-16
cg2059_1 i246|i6|w1 0  c=1.13988e-16
cg2058_1 i246|i6|w0 0  c=9.81956e-17
cg2057_1 i246|i6|net269 0  c=1.19594e-16
cg2056_1 i246|i6|net268 0  c=1.09578e-16
cg2055_1 i246|i6|net266 0  c=1.05124e-16
cg2054_1 i246|i6|net267 0  c=1.28683e-16
cg2029_1 ln_x3309053b206|95 0  c=9.11924e-18
cg2028_1 ln_x3309053b206|94 0  c=9.08746e-18
cg2027_1 ln_x3309053b206|93 0  c=9.12295e-18
cg2026_1 ln_x3309053b206|92 0  c=9.13684e-18
cg2025_1 ln_x3309053b206|91 0  c=9.41499e-18
cg2024_1 ln_x3309053b206|90 0  c=9.21674e-18
cg2023_1 ln_x3309053b206|89 0  c=9.39506e-18
cg2022_1 ln_x3309053b206|88 0  c=9.19963e-18
cg1989_1 i246|i9|w3 0  c=1.14813e-16
cg1988_1 i246|i9|w2 0  c=1.14752e-16
cg1987_1 i246|i9|w1 0  c=1.17723e-16
cg1986_1 i246|i9|w0 0  c=1.01912e-16
cg1985_1 i246|i9|net269 0  c=1.21446e-16
cg1984_1 i246|i9|net268 0  c=1.09432e-16
cg1983_1 i246|i9|net266 0  c=1.05611e-16
cg1982_1 i246|i9|net267 0  c=1.28602e-16
cg1957_1 ln_x3309053b205|95 0  c=9.11341e-18
cg1956_1 ln_x3309053b205|94 0  c=9.08831e-18
cg1955_1 ln_x3309053b205|93 0  c=9.12295e-18
cg1954_1 ln_x3309053b205|92 0  c=9.14681e-18
cg1953_1 ln_x3309053b205|91 0  c=9.41548e-18
cg1952_1 ln_x3309053b205|90 0  c=9.21674e-18
cg1951_1 ln_x3309053b205|89 0  c=9.39506e-18
cg1950_1 ln_x3309053b205|88 0  c=9.19963e-18
cg1917_1 i246|i7|w3 0  c=1.15518e-16
cg1916_1 i246|i7|w2 0  c=1.14765e-16
cg1915_1 i246|i7|w1 0  c=1.14442e-16
cg1914_1 i246|i7|w0 0  c=9.6384e-17
cg1913_1 i246|i7|net269 0  c=1.19722e-16
cg1912_1 i246|i7|net268 0  c=1.09577e-16
cg1911_1 i246|i7|net266 0  c=1.05155e-16
cg1910_1 i246|i7|net267 0  c=1.28684e-16
cg1885_1 ln_x3309053b204|95 0  c=9.11522e-18
cg1884_1 ln_x3309053b204|94 0  c=9.08831e-18
cg1883_1 ln_x3309053b204|93 0  c=9.12295e-18
cg1882_1 ln_x3309053b204|92 0  c=9.14681e-18
cg1881_1 ln_x3309053b204|91 0  c=9.41478e-18
cg1880_1 ln_x3309053b204|90 0  c=9.21674e-18
cg1879_1 ln_x3309053b204|89 0  c=9.39506e-18
cg1878_1 ln_x3309053b204|88 0  c=9.19962e-18
cg1845_1 i246|i8|w3 0  c=1.13191e-16
cg1844_1 i246|i8|w2 0  c=1.13713e-16
cg1843_1 i246|i8|w1 0  c=1.14037e-16
cg1842_1 i246|i8|w0 0  c=9.65101e-17
cg1841_1 i246|i8|net269 0  c=1.19678e-16
cg1840_1 i246|i8|net268 0  c=1.08945e-16
cg1839_1 i246|i8|net266 0  c=1.03815e-16
cg1838_1 i246|i8|net267 0  c=1.27311e-16
cg1833_1 i215|net26 0  c=1.08836e-16
cg1832_1 i215|net27 0  c=1.01334e-16
cg1831_1 i215|net17 0  c=6.7058e-17
cg1819_1 ln_x3309053b203|21 0  c=9.67297e-18
cg1814_1 ln_x3309053b203|16 0  c=9.17521e-18
cg1810_1 ln_x3309053b203|12 0  c=9.31642e-18
cg1807_1 i216|net26 0  c=1.09084e-16
cg1806_1 i216|net27 0  c=1.01223e-16
cg1805_1 i216|net17 0  c=6.70765e-17
cg1793_1 ln_x3309053b202|21 0  c=9.6749e-18
cg1788_1 ln_x3309053b202|16 0  c=9.17521e-18
cg1784_1 ln_x3309053b202|12 0  c=9.31642e-18
cg1781_1 i213|net26 0  c=1.09091e-16
cg1780_1 i213|net27 0  c=1.01231e-16
cg1779_1 i213|net17 0  c=6.70187e-17
cg1767_1 ln_x3309053b201|21 0  c=9.67297e-18
cg1762_1 ln_x3309053b201|16 0  c=9.17472e-18
cg1758_1 ln_x3309053b201|12 0  c=9.31642e-18
cg1755_1 i214|net26 0  c=1.09092e-16
cg1754_1 i214|net27 0  c=1.01273e-16
cg1753_1 i214|net17 0  c=6.69238e-17
cg1741_1 ln_x3309053b200|21 0  c=9.67297e-18
cg1736_1 ln_x3309053b200|16 0  c=9.17475e-18
cg1732_1 ln_x3309053b200|12 0  c=9.31642e-18
cg496_1 i202|net175 0  c=1.23661e-16
cg495_1 i218|clk_inverted 0  c=1.61489e-16
cg494_1 i218|clk_inverted_delayed 0  c=8.81701e-17
cg493_1 i202|net195 0  c=6.66974e-16
cg492_1 i218|net60 0  c=1.60462e-16
cg491_1 i218|net61 0  c=2.14797e-16
cg490_1 i218|net118 0  c=7.84184e-17
cg489_1 i217|net87 0  c=9.09235e-17
cg487_1 i217|net75 0  c=3.09616e-16
cg486_1 i6|q 0  c=6.59855e-17
cg485_1 i7|q 0  c=6.59704e-17
cg484_1 i67|q 0  c=6.60914e-17
cg483_1 i66|q 0  c=6.59786e-17
cg482_1 i65|q 0  c=6.5702e-17
cg481_1 i64|q 0  c=6.64309e-17
cg480_1 i4|q 0  c=6.65029e-17
cg479_1 i5|q 0  c=6.56942e-17
cg478_1 i189|q 0  c=6.65037e-17
cg476_1 i1|q 0  c=6.57654e-17
cg475_1 i2|q 0  c=6.5986e-17
cg474_1 i3|q 0  c=6.59056e-17
cg473_1 i68|q 0  c=6.63627e-17
cg472_1 i69|q 0  c=6.59855e-17
cg471_1 i70|q 0  c=6.6057e-17
cg470_1 i71|q 0  c=6.59056e-17
cg469_1 i202|i74|net24 0  c=1.20865e-16
cg468_1 i202|net217 0  c=8.55308e-17
cg467_1 ln_490 0  c=9.06692e-18
cg465_1 ln_489 0  c=8.93295e-18
cg464_1 ln_488 0  c=8.93295e-18
cg463_1 ln_487 0  c=8.93295e-18
cg462_1 ln_486 0  c=8.93284e-18
cg461_1 ln_485 0  c=9.25326e-18
cg460_1 i218|i54|net4 0  c=7.1649e-17
cg459_1 i218|net123 0  c=5.66555e-17
cg458_1 i218|i53|net4 0  c=7.39812e-17
cg457_1 i218|net122 0  c=7.94194e-17
cg456_1 i218|i52|net4 0  c=7.26377e-17
cg454_1 i218|net121 0  c=8.07063e-17
cg453_1 i218|i55|net4 0  c=7.15154e-17
cg452_1 i218|net36 0  c=1.34967e-16
cg451_1 ln_476 0  c=9.17667e-18
cg450_1 i218|net76 0  c=1.48218e-16
cg449_1 i45|qbar 0  c=7.17342e-17
cg448_1 i46|qbar 0  c=7.16307e-17
cg447_1 i44|qbar 0  c=7.13002e-17
cg446_1 i53|qbar 0  c=7.13194e-17
cg445_1 i54|qbar 0  c=7.17534e-17
cg443_1 i55|qbar 0  c=7.16499e-17
cg442_1 i60|qbar 0  c=7.01062e-17
cg441_1 i62|qbar 0  c=7.03963e-17
cg440_1 i61|qbar 0  c=7.04958e-17
cg439_1 i47|qbar 0  c=7.1192e-17
cg438_1 i56|qbar 0  c=7.12112e-17
cg437_1 i63|qbar 0  c=6.98613e-17
cg436_1 i121|qbar 0  c=7.04957e-17
cg435_1 i122|qbar 0  c=7.04081e-17
cg434_1 i123|qbar 0  c=7.01196e-17
cg432_1 i112|qbar 0  c=6.99765e-17
cg431_1 i116|qbar 0  c=7.13332e-17
cg430_1 i115|qbar 0  c=7.16787e-17
cg429_1 i114|qbar 0  c=7.17496e-17
cg428_1 i113|qbar 0  c=7.11897e-17
cg427_1 i96|qbar 0  c=7.11705e-17
cg426_1 i107|qbar 0  c=7.1314e-17
cg425_1 i106|qbar 0  c=7.16595e-17
cg424_1 i105|qbar 0  c=7.17305e-17
cg423_1 i41|qbar 0  c=7.18445e-17
cg421_1 i42|qbar 0  c=7.16401e-17
cg420_1 i43|qbar 0  c=7.108e-17
cg419_1 i193|qbar 0  c=7.12979e-17
cg418_1 i199|qbar 0  c=7.13171e-17
cg417_1 i50|qbar 0  c=7.18637e-17
cg416_1 i51|qbar 0  c=7.16593e-17
cg415_1 i52|qbar 0  c=7.10992e-17
cg414_1 i198|qbar 0  c=7.01179e-17
cg413_1 i59|qbar 0  c=6.98533e-17
cg412_1 i58|qbar 0  c=7.04022e-17
cg410_1 i57|qbar 0  c=7.05046e-17
cg409_1 i125|qbar 0  c=7.05051e-17
cg408_1 i126|qbar 0  c=7.04114e-17
cg407_1 i127|qbar 0  c=6.98591e-17
cg406_1 i124|qbar 0  c=7.0403e-17
cg405_1 i120|qbar 0  c=7.1102e-17
cg404_1 i119|qbar 0  c=7.177e-17
cg403_1 i118|qbar 0  c=7.18598e-17
cg402_1 i117|qbar 0  c=7.15996e-17
cg401_1 i108|qbar 0  c=7.15804e-17
cg399_1 i111|qbar 0  c=7.10828e-17
cg398_1 i110|qbar 0  c=7.17508e-17
cg397_1 i109|qbar 0  c=7.18406e-17
cg396_1 i20|qbar 0  c=7.12983e-17
cg395_1 i21|qbar 0  c=7.17378e-17
cg394_1 i22|qbar 0  c=7.16329e-17
cg393_1 i28|qbar 0  c=7.13002e-17
cg392_1 i30|qbar 0  c=7.16337e-17
cg391_1 i29|qbar 0  c=7.17385e-17
cg390_1 i39|qbar 0  c=7.16307e-17
cg388_1 i38|qbar 0  c=7.17342e-17
cg387_1 i37|qbar 0  c=7.13002e-17
cg386_1 i23|qbar 0  c=7.11969e-17
cg385_1 i31|qbar 0  c=7.11961e-17
cg384_1 i40|qbar 0  c=7.1192e-17
cg383_1 i97|qbar 0  c=7.11705e-17
cg382_1 i98|qbar 0  c=7.17305e-17
cg381_1 i99|qbar 0  c=7.16595e-17
cg380_1 i100|qbar 0  c=7.1314e-17
cg379_1 i89|qbar 0  c=7.17348e-17
cg377_1 i90|qbar 0  c=7.16582e-17
cg376_1 i91|qbar 0  c=7.13236e-17
cg375_1 i88|qbar 0  c=7.11746e-17
cg374_1 i83|qbar 0  c=7.13236e-17
cg373_1 i82|qbar 0  c=7.16618e-17
cg372_1 i81|qbar 0  c=7.17341e-17
cg371_1 i72|qbar 0  c=7.11686e-17
cg370_1 i190|qbar 0  c=7.1296e-17
cg369_1 i17|qbar 0  c=7.18445e-17
cg368_1 i18|qbar 0  c=7.16423e-17
cg366_1 i19|qbar 0  c=7.10848e-17
cg365_1 i192|qbar 0  c=7.12979e-17
cg364_1 i27|qbar 0  c=7.10885e-17
cg363_1 i26|qbar 0  c=7.16431e-17
cg362_1 i25|qbar 0  c=7.18445e-17
cg361_1 i36|qbar 0  c=7.108e-17
cg360_1 i35|qbar 0  c=7.16401e-17
cg359_1 i34|qbar 0  c=7.18445e-17
cg358_1 i197|qbar 0  c=7.12979e-17
cg357_1 i101|qbar 0  c=7.15804e-17
cg356_1 i102|qbar 0  c=7.18407e-17
cg355_1 i103|qbar 0  c=7.17508e-17
cg354_1 i104|qbar 0  c=7.10828e-17
cg353_1 i93|qbar 0  c=7.18407e-17
cg352_1 i94|qbar 0  c=7.17495e-17
cg351_1 i95|qbar 0  c=7.10913e-17
cg350_1 i92|qbar 0  c=7.15845e-17
cg349_1 i87|qbar 0  c=7.10877e-17
cg348_1 i86|qbar 0  c=7.17531e-17
cg347_1 i85|qbar 0  c=7.18443e-17
cg346_1 i84|qbar 0  c=7.15803e-17
cg345_1 i4|qbar 0  c=7.12859e-17
cg344_1 i5|qbar 0  c=7.17135e-17
cg343_1 i6|qbar 0  c=7.16194e-17
cg342_1 i7|qbar 0  c=7.11827e-17
cg341_1 i15|qbar 0  c=7.1632e-17
cg340_1 i14|qbar 0  c=7.17355e-17
cg339_1 i13|qbar 0  c=7.12984e-17
cg338_1 i67|qbar 0  c=7.13042e-17
cg337_1 i66|qbar 0  c=7.1651e-17
cg336_1 i65|qbar 0  c=7.17098e-17
cg335_1 i64|qbar 0  c=7.11562e-17
cg334_1 i16|qbar 0  c=7.11763e-17
cg333_1 i73|qbar 0  c=7.11687e-17
cg332_1 i74|qbar 0  c=7.17318e-17
cg331_1 i75|qbar 0  c=7.16612e-17
cg330_1 i76|qbar 0  c=7.13507e-17
cg329_1 i189|qbar 0  c=7.1286e-17
cg328_1 i1|qbar 0  c=7.18239e-17
cg327_1 i2|qbar 0  c=7.16288e-17
cg326_1 i3|qbar 0  c=7.10692e-17
cg325_1 i12|qbar 0  c=7.10642e-17
cg324_1 i11|qbar 0  c=7.16414e-17
cg323_1 i10|qbar 0  c=7.18458e-17
cg322_1 i191|qbar 0  c=7.1296e-17
cg321_1 i77|qbar 0  c=7.15812e-17
cg320_1 i68|qbar 0  c=7.15626e-17
cg319_1 i80|qbar 0  c=7.10671e-17
cg318_1 i79|qbar 0  c=7.17521e-17
cg317_1 i78|qbar 0  c=7.1842e-17
cg316_1 i69|qbar 0  c=7.182e-17
cg315_1 i70|qbar 0  c=7.17395e-17
cg314_1 i71|qbar 0  c=7.10716e-17
cg313_1 i209|net6 0  c=7.79011e-17
cg312_1 i210|net6 0  c=7.79175e-17
cg311_1 i211|net6 0  c=7.79754e-17
cg310_1 i207|i32|net4 0  c=6.43653e-17
cg309_1 i207|net44 0  c=1.00194e-16
cg308_1 i207|i34|net24 0  c=1.23078e-16
cg307_1 i206|i32|net4 0  c=6.44255e-17
cg306_1 i206|net44 0  c=1.00263e-16
cg305_1 i206|i34|net24 0  c=1.2231e-16
cg304_1 i205|i32|net4 0  c=6.44072e-17
cg303_1 i205|net44 0  c=1.00226e-16
cg302_1 i205|i34|net24 0  c=1.22263e-16
cg301_1 i212|net6 0  c=7.9186e-17
cg300_1 i208|i32|net4 0  c=6.42048e-17
cg299_1 i208|net44 0  c=1.00248e-16
cg298_1 i208|i34|net24 0  c=1.22209e-16
cg297_1 i246|i6|net192 0  c=9.96661e-17
cg296_1 i246|i6|net189 0  c=1.173e-16
cg295_1 i246|i6|net186 0  c=1.08549e-16
cg294_1 i246|i6|net183 0  c=1.16419e-16
cg293_1 i246|i9|net192 0  c=9.93367e-17
cg292_1 i246|i9|net189 0  c=1.17354e-16
cg291_1 i246|i9|net186 0  c=1.08122e-16
cg290_1 i246|i9|net183 0  c=1.18735e-16
cg289_1 i246|i7|net192 0  c=9.9768e-17
cg288_1 i246|i7|net189 0  c=1.17298e-16
cg287_1 i246|i7|net186 0  c=1.08571e-16
cg286_1 i246|i7|net183 0  c=1.16587e-16
cg285_1 i246|i8|net192 0  c=9.82602e-17
cg284_1 i246|i8|net189 0  c=1.1562e-16
cg283_1 i246|i8|net186 0  c=1.07011e-16
cg282_1 i246|i8|net183 0  c=1.16191e-16
cg281_1 i249|net1 0  c=8.8687e-17
cg280_1 i249|net6 0  c=8.80391e-17
cg279_1 ln_312 0  c=9.73032e-18
cg278_1 i217|i0|net10 0  c=7.97652e-17
cg277_1 i217|net77 0  c=1.09724e-16
cg276_1 i217|i0|net19 0  c=5.84965e-17
cg275_1 i217|net55 0  c=1.16271e-16
cg274_1 i217|net52 0  c=1.34653e-16
cg273_1 ln_306 0  c=9.59647e-18
cg272_1 i217|net79 0  c=6.30482e-17
cg240_1 i123|q 0  c=7.32049e-17
cg239_1 i122|q 0  c=7.30593e-17
cg238_1 i121|q 0  c=7.27918e-17
cg237_1 i112|q 0  c=7.35394e-17
cg236_1 i113|q 0  c=7.34469e-17
cg235_1 i116|q 0  c=7.30796e-17
cg234_1 i115|q 0  c=7.29418e-17
cg233_1 i114|q 0  c=7.26793e-17
cg232_1 i96|q 0  c=7.34374e-17
cg231_1 i105|q 0  c=7.26698e-17
cg230_1 i106|q 0  c=7.29323e-17
cg229_1 i107|q 0  c=7.30701e-17
cg228_1 i98|q 0  c=7.26698e-17
cg227_1 i99|q 0  c=7.29323e-17
cg226_1 i100|q 0  c=7.30701e-17
cg225_1 i97|q 0  c=7.34374e-17
cg224_1 i91|q 0  c=7.29859e-17
cg223_1 i90|q 0  c=7.29301e-17
cg222_1 i89|q 0  c=7.26589e-17
cg221_1 i88|q 0  c=7.34267e-17
cg220_1 i28|q 0  c=7.35115e-17
cg219_1 i30|q 0  c=7.29113e-17
cg218_1 i29|q 0  c=7.26512e-17
cg217_1 i39|q 0  c=7.29244e-17
cg216_1 i38|q 0  c=7.2662e-17
cg215_1 i37|q 0  c=7.35115e-17
cg214_1 i45|q 0  c=7.2662e-17
cg213_1 i46|q 0  c=7.29244e-17
cg212_1 i44|q 0  c=7.35115e-17
cg211_1 i53|q 0  c=7.3521e-17
cg210_1 i54|q 0  c=7.26715e-17
cg209_1 i55|q 0  c=7.29339e-17
cg208_1 i60|q 0  c=7.36143e-17
cg207_1 i62|q 0  c=7.30409e-17
cg206_1 i61|q 0  c=7.2784e-17
cg205_1 i31|q 0  c=7.2848e-17
cg204_1 i40|q 0  c=7.29322e-17
cg203_1 i47|q 0  c=7.29322e-17
cg202_1 i56|q 0  c=7.29417e-17
cg201_1 i63|q 0  c=7.29893e-17
cg200_1 i192|q 0  c=7.35109e-17
cg199_1 i27|q 0  c=7.27724e-17
cg198_1 i26|q 0  c=7.29118e-17
cg197_1 i25|q 0  c=7.27356e-17
cg196_1 i36|q 0  c=7.28675e-17
cg195_1 i35|q 0  c=7.29249e-17
cg194_1 i34|q 0  c=7.27356e-17
cg193_1 i197|q 0  c=7.35109e-17
cg192_1 i41|q 0  c=7.27356e-17
cg191_1 i42|q 0  c=7.29249e-17
cg190_1 i43|q 0  c=7.28675e-17
cg189_1 i193|q 0  c=7.35109e-17
cg188_1 i199|q 0  c=7.35204e-17
cg187_1 i50|q 0  c=7.27451e-17
cg186_1 i51|q 0  c=7.29344e-17
cg185_1 i52|q 0  c=7.2877e-17
cg184_1 i198|q 0  c=7.36128e-17
cg183_1 i59|q 0  c=7.29841e-17
cg182_1 i58|q 0  c=7.30414e-17
cg181_1 i57|q 0  c=7.27994e-17
cg180_1 i127|q 0  c=7.29841e-17
cg179_1 i126|q 0  c=7.30522e-17
cg178_1 i125|q 0  c=7.30103e-17
cg177_1 i124|q 0  c=7.33867e-17
cg176_1 i117|q 0  c=7.33144e-17
cg175_1 i120|q 0  c=7.2877e-17
cg174_1 i119|q 0  c=7.30054e-17
cg173_1 i118|q 0  c=7.29629e-17
cg172_1 i108|q 0  c=7.33048e-17
cg171_1 i109|q 0  c=7.29534e-17
cg170_1 i110|q 0  c=7.29959e-17
cg169_1 i111|q 0  c=7.28675e-17
cg168_1 i102|q 0  c=7.29534e-17
cg167_1 i103|q 0  c=7.29959e-17
cg166_1 i104|q 0  c=7.28675e-17
cg165_1 i101|q 0  c=7.32901e-17
cg164_1 i95|q 0  c=7.27724e-17
cg163_1 i94|q 0  c=7.29936e-17
cg162_1 i93|q 0  c=7.29534e-17
cg161_1 i92|q 0  c=7.32901e-17
cg160_1 i72|q 0  c=7.34374e-17
cg159_1 i73|q 0  c=7.34374e-17
cg158_1 i81|q 0  c=7.26698e-17
cg157_1 i74|q 0  c=7.26522e-17
cg156_1 i82|q 0  c=7.29313e-17
cg155_1 i75|q 0  c=7.29323e-17
cg154_1 i83|q 0  c=7.30111e-17
cg153_1 i76|q 0  c=7.30701e-17
cg152_1 i246|i8|r3 0  c=1.09323e-16
cg151_1 i246|i8|r2 0  c=1.13013e-16
cg150_1 i246|i8|r1 0  c=1.16953e-16
cg149_1 i246|i8|r0 0  c=1.10233e-16
cg148_1 i22|q 0  c=7.29234e-17
cg147_1 i15|q 0  c=7.29244e-17
cg146_1 i21|q 0  c=7.2662e-17
cg145_1 i14|q 0  c=7.26444e-17
cg144_1 i20|q 0  c=7.35115e-17
cg143_1 i13|q 0  c=7.35115e-17
cg142_1 i23|q 0  c=7.28732e-17
cg141_1 i16|q 0  c=7.29322e-17
cg140_1 i246|i7|r0 0  c=1.10236e-16
cg139_1 i246|i7|r1 0  c=1.18198e-16
cg138_1 i246|i7|r2 0  c=1.18752e-16
cg137_1 i246|i7|r3 0  c=1.14692e-16
cg136_1 i19|q 0  c=7.28085e-17
cg135_1 i12|q 0  c=7.28675e-17
cg134_1 i18|q 0  c=7.29239e-17
cg133_1 i11|q 0  c=7.29249e-17
cg132_1 i17|q 0  c=7.27356e-17
cg131_1 i10|q 0  c=7.2718e-17
cg130_1 i190|q 0  c=7.35109e-17
cg129_1 i191|q 0  c=7.35109e-17
cg128_1 i246|i6|r0 0  c=1.16383e-16
cg127_1 i246|i6|r1 0  c=1.18159e-16
cg126_1 i246|i6|r2 0  c=1.18531e-16
cg125_1 i246|i6|r3 0  c=1.14778e-16
cg124_1 i84|q 0  c=7.33055e-17
cg123_1 i77|q 0  c=7.32846e-17
cg122_1 i87|q 0  c=7.28085e-17
cg121_1 i86|q 0  c=7.29949e-17
cg120_1 i85|q 0  c=7.29534e-17
cg119_1 i78|q 0  c=7.29358e-17
cg118_1 i79|q 0  c=7.29959e-17
cg117_1 i80|q 0  c=7.28675e-17
cg116_1 i246|i9|r0 0  c=1.1486e-16
cg115_1 i246|i9|r1 0  c=1.16649e-16
cg114_1 i246|i9|r2 0  c=1.17901e-16
cg113_1 i246|i9|r3 0  c=1.15096e-16
cg112_1 i207|net47 0  c=1.17053e-16
cg111_1 i211|net8 0  c=8.05207e-17
cg110_1 i207|i33|net4 0  c=7.08125e-17
cg109_1 i206|net47 0  c=1.16623e-16
cg108_1 i210|net8 0  c=7.99833e-17
cg107_1 i206|i33|net4 0  c=7.07823e-17
cg106_1 i205|net47 0  c=1.16637e-16
cg105_1 i209|net8 0  c=7.99839e-17
cg104_1 i205|i33|net4 0  c=7.08117e-17
cg103_1 i208|net47 0  c=1.16762e-16
cg102_1 i212|net8 0  c=7.99335e-17
cg101_1 i208|i33|net4 0  c=7.1321e-17
cg99_1 a<4> 0  c=5.35612e-16
cg98_1 a<0> 0  c=8.5089e-17
cg97_1 a<1> 0  c=8.48516e-17
cg96_1 a<2> 0  c=3.69578e-16
cg95_1 d<2> 0  c=1.10592e-16
cg94_1 d<1> 0  c=1.09633e-16
cg93_1 d<0> 0  c=1.09619e-16
cg92_1 d<3> 0  c=1.09922e-16
cg91_1 clk 0  c=2.13707e-16
cg90_1 wl<0> 0  c=1.27463e-15
cg89_1 wl<1> 0  c=1.27782e-15
cg88_1 wl<2> 0  c=1.27547e-15
cg87_1 wl<3> 0  c=1.27541e-15
cg86_1 wl<4> 0  c=1.27527e-15
cg85_1 wl<5> 0  c=1.2754e-15
cg84_1 a<3> 0  c=5.59926e-16
cg83_1 rs0 0  c=7.90276e-16
cg82_1 wl<6> 0  c=1.27489e-15
cg81_1 wl<7> 0  c=1.20507e-15
cg80_1 rsnew 0  c=2.04985e-16
cg79_1 wlref 0  c=3.61765e-16
cg78_1 read_dff2 0  c=7.36878e-17
cg77_1 read_dff1 0  c=7.84005e-17
cg76_1 read_dff0 0  c=7.84704e-17
cg75_1 read_dff3 0  c=7.84497e-17
cg74_1 net794 0  c=4.77599e-16
cg73_1 clki 0  c=5.86472e-16
cg72_1 net759 0  c=7.15868e-17
cg71_1 net625 0  c=9.74242e-17
cg70_1 net806 0  c=1.57502e-16
cg69_1 net810 0  c=1.75857e-16
cg68_1 net770 0  c=2.26513e-16
cg67_1 net792 0  c=5.25095e-16
cg66_1 rs1 0  c=6.51526e-16
cg65_1 wenb 0  c=3.47928e-16
cg64_1 net793 0  c=8.00142e-16
cg63_1 net791 0  c=8.50965e-16
cg62_1 blbar 0  c=3.61397e-16
cg61_1 net746 0  c=3.46005e-16
cg60_1 bl 0  c=3.23232e-16
cg59_1 net706 0  c=2.96451e-16
cg58_1 net687 0  c=3.62594e-16
cg57_1 net697 0  c=3.43038e-16
cg56_1 rs1bar 0  c=5.95429e-16
cg55_1 net499 0  c=3.20109e-16
cg54_1 net698 0  c=2.9621e-16
cg53_1 net693 0  c=3.609e-16
cg52_1 net747 0  c=3.4589e-16
cg51_1 net493 0  c=3.23328e-16
cg50_1 net703 0  c=2.96597e-16
cg49_1 net749 0  c=3.59959e-16
cg48_1 net745 0  c=3.44518e-16
cg47_1 net691 0  c=3.14404e-16
cg46_1 net748 0  c=2.9468e-16
cg45_1 net809 0  c=1.93142e-16
cg44_1 net807 0  c=1.7344e-16
cg43_1 net808 0  c=2.96401e-16
cg42_1 rs0bar 0  c=6.52705e-16
cg41_1 pc 0  c=1.1482e-15
cg40_1 net634 0  c=1.41319e-16
cg39_1 net628 0  c=1.4911e-16
cg38_1 bl11 0  c=4.17423e-16
cg37_1 bl11bar 0  c=4.00195e-16
cg36_1 bl10 0  c=4.20117e-16
cg35_1 bl10bar 0  c=4.02032e-16
cg34_1 bl9 0  c=4.238e-16
cg33_1 bl9bar 0  c=4.02663e-16
cg32_1 bl8 0  c=4.7879e-16
cg31_1 bl8bar 0  c=4.0242e-16
cg30_1 bl7bar 0  c=3.96213e-16
cg29_1 bl7 0  c=4.1696e-16
cg28_1 bl4 0  c=4.7875e-16
cg27_1 bl4bar 0  c=4.02373e-16
cg26_1 bl5 0  c=4.24137e-16
cg25_1 bl5bar 0  c=4.02745e-16
cg24_1 bl6 0  c=4.20491e-16
cg23_1 bl6bar 0  c=4.0247e-16
cg22_1 bl3bar 0  c=3.96225e-16
cg21_1 bl3 0  c=4.16935e-16
cg20_1 bl2bar 0  c=4.02477e-16
cg19_1 bl2 0  c=4.20501e-16
cg18_1 bl1bar 0  c=4.0273e-16
cg17_1 bl1 0  c=4.24017e-16
cg16_1 bl0 0  c=4.82103e-16
cg15_1 bl0bar 0  c=4.02376e-16
cg14_1 bl12 0  c=3.62951e-15
cg13_1 bl12bar 0  c=4.02797e-16
cg12_1 bl13 0  c=4.28151e-16
cg11_1 bl13bar 0  c=4.04906e-16
cg10_1 bl14 0  c=4.25935e-16
cg9_1 bl14bar 0  c=4.04699e-16
cg8_1 bl15 0  c=4.22187e-16
cg7_1 bl15bar 0  c=4.00081e-16
cg6_1 q<2> 0  c=3.29131e-17
cg5_1 q<1> 0  c=3.30237e-17
cg4_1 q<3> 0  c=3.27174e-17
cg3_1 q<0> 0  c=3.30121e-17
mi217|i0|i2|m1 i217|i0|net19 wenb gnd! nfet nfin=2 w=0.021u l=0.015u adeo=2.835e-16
+  aseo=2.835e-16 pdeo=5.85e-08 pseo=5.85e-08
mi217|i0|i1|m1 ln_x3309053b6|x3309053b947|16 a<0> gnd! nfet nfin=2 w=0.021u l=0.015u
+  adeo=5.67e-16 aseo=2.835e-16 pdeo=1.17e-07 pseo=5.85e-08
mi217|i0|i0|m1 ln_x3309053b6|x3309053b947|15 a<0> gnd! nfet nfin=2 w=0.021u l=0.015u
+  adeo=5.67e-16 aseo=2.835e-16 pdeo=1.17e-07 pseo=5.85e-08
mi217|i0|i1|m0 i217|i0|net12 wenb ln_x3309053b6|x3309053b947|16 nfet nfin=2 w=0.021u
+  l=0.015u adeo=2.835e-16 aseo=5.67e-16 pdeo=5.85e-08 pseo=1.17e-07
mi217|i0|i0|m0 i217|i0|net10 i217|i0|net19 ln_x3309053b6|x3309053b947|15 nfet
+ nfin=2 w=0.021u l=0.015u adeo=2.835e-16 aseo=5.67e-16 pdeo=5.85e-08 pseo=1.17e-07
mi217|i0|i4|m1 i217|net86 i217|i0|net12 gnd! nfet nfin=2 w=0.021u l=0.015u adeo=2.835e-16
+  aseo=2.835e-16 pdeo=5.85e-08 pseo=5.85e-08
mi217|i0|i3|m1 i217|net77 i217|i0|net10 gnd! nfet nfin=2 w=0.021u l=0.015u adeo=2.835e-16
+  aseo=2.835e-16 pdeo=5.85e-08 pseo=5.85e-08
mi217|i1|i2|m1 i217|i1|net19 wenb gnd! nfet nfin=2 w=0.021u l=0.015u adeo=2.835e-16
+  aseo=2.835e-16 pdeo=5.85e-08 pseo=5.85e-08
mi217|i1|i1|m1 ln_x3309053b6|x3309053b946|16 a<1> gnd! nfet nfin=2 w=0.021u l=0.015u
+  adeo=5.67e-16 aseo=2.835e-16 pdeo=1.17e-07 pseo=5.85e-08
mi217|i1|i0|m1 ln_x3309053b6|x3309053b946|15 a<1> gnd! nfet nfin=2 w=0.021u l=0.015u
+  adeo=5.67e-16 aseo=2.835e-16 pdeo=1.17e-07 pseo=5.85e-08
mi217|i1|i1|m0 i217|i1|net12 wenb ln_x3309053b6|x3309053b946|16 nfet nfin=2 w=0.021u
+  l=0.015u adeo=2.835e-16 aseo=5.67e-16 pdeo=5.85e-08 pseo=1.17e-07
mi217|i1|i0|m0 i217|i1|net10 i217|i1|net19 ln_x3309053b6|x3309053b946|15 nfet
+ nfin=2 w=0.021u l=0.015u adeo=2.835e-16 aseo=5.67e-16 pdeo=5.85e-08 pseo=1.17e-07
mi217|i1|i4|m1 i217|net88 i217|i1|net12 gnd! nfet nfin=2 w=0.021u l=0.015u adeo=2.835e-16
+  aseo=2.835e-16 pdeo=5.85e-08 pseo=5.85e-08
mi217|i1|i3|m1 i217|net82 i217|i1|net10 gnd! nfet nfin=2 w=0.021u l=0.015u adeo=2.835e-16
+  aseo=2.835e-16 pdeo=5.85e-08 pseo=5.85e-08
mi217|i26|m1@2 net625 i217|net55 gnd! nfet nfin=2 w=0.021u l=0.015u adeo=5.67e-16
+  aseo=2.835e-16 pdeo=1.17e-07 pseo=5.85e-08
mi217|i33|m1 gnd! i217|net52 net807 nfet nfin=2 w=0.021u l=0.015u adeo=2.835e-16
+  aseo=5.67e-16 pdeo=5.85e-08 pseo=1.17e-07
mi217|i32|m1 gnd! i217|net49 net808 nfet nfin=2 w=0.021u l=0.015u adeo=2.835e-16
+  aseo=5.67e-16 pdeo=5.85e-08 pseo=1.17e-07
mi217|i31|m1 gnd! i217|net64 net628 nfet nfin=2 w=0.021u l=0.015u adeo=2.835e-16
+  aseo=5.67e-16 pdeo=5.85e-08 pseo=1.17e-07
mi217|i30|m1 gnd! i217|net61 net634 nfet nfin=2 w=0.021u l=0.015u adeo=2.835e-16
+  aseo=5.67e-16 pdeo=5.85e-08 pseo=1.17e-07
mi217|i29|m1 gnd! i217|net46 net810 nfet nfin=2 w=0.021u l=0.015u adeo=2.835e-16
+  aseo=5.67e-16 pdeo=5.85e-08 pseo=1.17e-07
mi217|i16|m1 i217|net81 i217|net82 gnd! nfet nfin=2 w=0.021u l=0.015u adeo=2.835e-16
+  aseo=2.835e-16 pdeo=5.85e-08 pseo=5.85e-08
mi217|i14|m1 i217|net79 i217|net77 gnd! nfet nfin=2 w=0.021u l=0.015u adeo=2.835e-16
+  aseo=2.835e-16 pdeo=5.85e-08 pseo=5.85e-08
mi217|i17|m1 gnd! i217|net88 i217|net87 nfet nfin=2 w=0.021u l=0.015u adeo=2.835e-16
+  aseo=2.835e-16 pdeo=5.85e-08 pseo=5.85e-08
mi217|i15|m1 gnd! i217|net86 i217|net85 nfet nfin=2 w=0.021u l=0.015u adeo=2.835e-16
+  aseo=2.835e-16 pdeo=5.85e-08 pseo=5.85e-08
mi217|i34|m1 i217|net75 wenb gnd! nfet nfin=2 w=0.021u l=0.015u adeo=2.835e-16
+ aseo=2.835e-16 pdeo=5.85e-08 pseo=5.85e-08
mi217|i25|m1 ln_x3309053b6|55 i217|net82 gnd! nfet nfin=2 w=0.021u l=0.015u
+ adeo=5.67e-16 aseo=2.835e-16 pdeo=1.17e-07 pseo=5.85e-08
mi217|i24|m1 ln_x3309053b6|56 i217|net81 gnd! nfet nfin=2 w=0.021u l=0.015u
+ adeo=5.67e-16 aseo=2.835e-16 pdeo=1.17e-07 pseo=5.85e-08
mi217|i23|m1 ln_x3309053b6|57 i217|net77 gnd! nfet nfin=2 w=0.021u l=0.015u
+ adeo=5.67e-16 aseo=2.835e-16 pdeo=1.17e-07 pseo=5.85e-08
mi217|i28|m1 gnd! i217|net43 net809 nfet nfin=2 w=0.021u l=0.015u adeo=2.835e-16
+  aseo=5.67e-16 pdeo=5.85e-08 pseo=1.17e-07
mi217|i22|m1 ln_x3309053b6|58 i217|net79 gnd! nfet nfin=2 w=0.021u l=0.015u
+ adeo=5.67e-16 aseo=2.835e-16 pdeo=1.17e-07 pseo=5.85e-08
mi217|i21|m0 i217|net52 i217|net75 gnd! nfet nfin=2 w=0.021u l=0.015u adeo=5.67e-16
+  aseo=2.835e-16 pdeo=1.17e-07 pseo=5.85e-08
mi217|i20|m0 i217|net49 i217|net75 gnd! nfet nfin=2 w=0.021u l=0.015u adeo=5.67e-16
+  aseo=2.835e-16 pdeo=1.17e-07 pseo=5.85e-08
mi217|i25|m0 i217|net64 i217|net75 ln_x3309053b6|55 nfet nfin=2 w=0.021u l=0.015u
+  adeo=2.835e-16 aseo=5.67e-16 pdeo=5.85e-08 pseo=1.17e-07
mi217|i24|m0 i217|net61 i217|net75 ln_x3309053b6|56 nfet nfin=2 w=0.021u l=0.015u
+  adeo=2.835e-16 aseo=5.67e-16 pdeo=5.85e-08 pseo=1.17e-07
mi217|i19|m0 i217|net46 i217|net75 gnd! nfet nfin=2 w=0.021u l=0.015u adeo=5.67e-16
+  aseo=2.835e-16 pdeo=1.17e-07 pseo=5.85e-08
mi217|i18|m0 i217|net43 i217|net75 gnd! nfet nfin=2 w=0.021u l=0.015u adeo=5.67e-16
+  aseo=2.835e-16 pdeo=1.17e-07 pseo=5.85e-08
mi217|i23|m0 i217|net58 i217|net75 ln_x3309053b6|57 nfet nfin=2 w=0.021u l=0.015u
+  adeo=2.835e-16 aseo=5.67e-16 pdeo=5.85e-08 pseo=1.17e-07
mi217|i22|m0 i217|net55 i217|net75 ln_x3309053b6|58 nfet nfin=2 w=0.021u l=0.015u
+  adeo=2.835e-16 aseo=5.67e-16 pdeo=5.85e-08 pseo=1.17e-07
mi217|i21|m1 gnd! i217|net87 i217|net52 nfet nfin=2 w=0.021u l=0.015u adeo=2.835e-16
+  aseo=5.67e-16 pdeo=5.85e-08 pseo=1.17e-07
mi217|i27|m1 gnd! i217|net58 net806 nfet nfin=2 w=0.021u l=0.015u adeo=2.835e-16
+  aseo=5.67e-16 pdeo=5.85e-08 pseo=1.17e-07
mi217|i20|m1 gnd! i217|net88 i217|net49 nfet nfin=2 w=0.021u l=0.015u adeo=2.835e-16
+  aseo=5.67e-16 pdeo=5.85e-08 pseo=1.17e-07
mi217|i19|m1 gnd! i217|net85 i217|net46 nfet nfin=2 w=0.021u l=0.015u adeo=2.835e-16