********************************************************************************
* Library          : group8
* Cell             : read_circuit
* View             : schematic
* View Search List : hspice hspiceD schematic spice veriloga
* View Stop List   : hspice hspiceD
********************************************************************************
.subckt read_circuit bl blbar out
xi0 bl net6 net2 nand
xi1 net2 out inv
xi2 blbar net6 invx4
.ends read_circuit

