.tran 0.1p 5n start=0
.measure tran Qtot INTEG 'i(vdd)' FROM='0' TO='31*clkperiod'
.measure tran Etot PARAM='-Qtot*vdd'