********************************************************************************
* Library          : group8
* Cell             : buffer
* View             : schematic
* View Search List : hspice hspiceD schematic spice veriloga
* View Stop List   : hspice hspiceD
********************************************************************************
.subckt buffer in out
xi1 net4 out inv
xi0 in net4 inv
.ends buffer

