* PEX netlist file	Sat Apr 12 15:24:33 2025	memory_array_8by16
* icv_netlist Version RHEL64 W-2024.09-SP2.11100136 2024/12/03
*.UNIT=4000

* Hierarchy Level 1
.subckt sram_6t 2 3 4 5 6 7 8 9 10 11 12
+	13 16 17 18
*.floating_nets 14 15 19 20
MM1 3 6 7 pmos  W=2.1e-08 L=1.5e-08 NFIN=2 ADEO=2.835e-16 ASEO=2.835e-16 PDEO=5.85e-08
+	 PSEO=5.85e-08 $X=366 $Y=756  $PIN_XY=396,670,366,756,336,670 $DEVICE_ID=1003
MM2 6 7 3 pmos  W=2.1e-08 L=1.5e-08 NFIN=2 ADEO=2.835e-16 ASEO=2.835e-16 PDEO=5.85e-08
+	 PSEO=5.85e-08 $X=198 $Y=294  $PIN_XY=228,380,198,294,168,380 $DEVICE_ID=1003
.ends sram_6t
.subckt sram_filler 2 3 4 5
.ends sram_filler

* Hierarchy Level 0

* Top of hierarchy  cell=memory_array_8by16
.subckt memory_array_8by16 GND! VDD! WL<0> WL<1> WL<2> WL<3> WL<4> WL<5> WL<6> WL<7> BLB<1>
+	BL<1> BLB<0> BL<0> BLB<4> BL<4> BLB<2> BL<2> BLB<3> BL<3> BLB<5> BL<5>
+	BLB<7> BL<7> BLB<6> BL<6> BLB<8> BL<8> BLB<9> BL<9> BLB<10> BL<10> BLB<11>
+	BL<11> BLB<12> BL<12> BLB<14> BL<14> BLB<15> BL<15> BLB<13> BL<13>
MM1 GND! 368 264 nmos  W=2.1e-08 L=1.5e-08 NFIN=2 ADEO=2.835e-16 ASEO=5.67e-16 PDEO=5.85e-08
+	 PSEO=1.17e-07 $X=9046 $Y=7242  $PIN_XY=9076,7326,9046,7242,9016,7326 $DEVICE_ID=1001
MM2 BL<15> WL<7> 368 nmos  W=2.1e-08 L=1.5e-08 NFIN=2 ADEO=2.835e-16 ASEO=5.67e-16 PDEO=5.85e-08
+	 PSEO=1.17e-07 $X=9046 $Y=6693  $PIN_XY=9076,6696,9046,6693,9016,6696 $DEVICE_ID=1001
MM3 GND! 265 254 nmos  W=2.1e-08 L=1.5e-08 NFIN=2 ADEO=2.835e-16 ASEO=5.67e-16 PDEO=5.85e-08
+	 PSEO=1.17e-07 $X=9046 $Y=6318  $PIN_XY=9076,6402,9046,6318,9016,6402 $DEVICE_ID=1001
MM4 BL<15> WL<6> 265 nmos  W=2.1e-08 L=1.5e-08 NFIN=2 ADEO=2.835e-16 ASEO=5.67e-16 PDEO=5.85e-08
+	 PSEO=1.17e-07 $X=9046 $Y=5769  $PIN_XY=9076,5772,9046,5769,9016,5772 $DEVICE_ID=1001
MM5 GND! 255 248 nmos  W=2.1e-08 L=1.5e-08 NFIN=2 ADEO=2.835e-16 ASEO=5.67e-16 PDEO=5.85e-08
+	 PSEO=1.17e-07 $X=9046 $Y=5394  $PIN_XY=9076,5478,9046,5394,9016,5478 $DEVICE_ID=1001
MM6 BL<15> WL<5> 255 nmos  W=2.1e-08 L=1.5e-08 NFIN=2 ADEO=2.835e-16 ASEO=5.67e-16 PDEO=5.85e-08
+	 PSEO=1.17e-07 $X=9046 $Y=4845  $PIN_XY=9076,4848,9046,4845,9016,4848 $DEVICE_ID=1001
MM7 GND! 249 158 nmos  W=2.1e-08 L=1.5e-08 NFIN=2 ADEO=2.835e-16 ASEO=5.67e-16 PDEO=5.85e-08
+	 PSEO=1.17e-07 $X=9046 $Y=4470  $PIN_XY=9076,4554,9046,4470,9016,4554 $DEVICE_ID=1001
MM8 264 WL<7> BLB<15> nmos  W=2.1e-08 L=1.5e-08 NFIN=2 ADEO=5.67e-16 ASEO=2.835e-16 PDEO=1.17e-07
+	 PSEO=5.85e-08 $X=8878 $Y=7329  $PIN_XY=8908,7326,8878,7329,8848,7326 $DEVICE_ID=1001
MM9 368 264 GND! nmos  W=2.1e-08 L=1.5e-08 NFIN=2 ADEO=5.67e-16 ASEO=2.835e-16 PDEO=1.17e-07
+	 PSEO=5.85e-08 $X=8878 $Y=6780  $PIN_XY=8908,6696,8878,6780,8848,6696 $DEVICE_ID=1001
MM10 254 WL<6> BLB<15> nmos  W=2.1e-08 L=1.5e-08 NFIN=2 ADEO=5.67e-16 ASEO=2.835e-16 PDEO=1.17e-07
+	 PSEO=5.85e-08 $X=8878 $Y=6405  $PIN_XY=8908,6402,8878,6405,8848,6402 $DEVICE_ID=1001
MM11 265 254 GND! nmos  W=2.1e-08 L=1.5e-08 NFIN=2 ADEO=5.67e-16 ASEO=2.835e-16 PDEO=1.17e-07
+	 PSEO=5.85e-08 $X=8878 $Y=5856  $PIN_XY=8908,5772,8878,5856,8848,5772 $DEVICE_ID=1001
MM12 248 WL<5> BLB<15> nmos  W=2.1e-08 L=1.5e-08 NFIN=2 ADEO=5.67e-16 ASEO=2.835e-16 PDEO=1.17e-07
+	 PSEO=5.85e-08 $X=8878 $Y=5481  $PIN_XY=8908,5478,8878,5481,8848,5478 $DEVICE_ID=1001
MM13 255 248 GND! nmos  W=2.1e-08 L=1.5e-08 NFIN=2 ADEO=5.67e-16 ASEO=2.835e-16 PDEO=1.17e-07
+	 PSEO=5.85e-08 $X=8878 $Y=4932  $PIN_XY=8908,4848,8878,4932,8848,4848 $DEVICE_ID=1001
MM14 158 WL<4> BLB<15> nmos  W=2.1e-08 L=1.5e-08 NFIN=2 ADEO=5.67e-16 ASEO=2.835e-16 PDEO=1.17e-07
+	 PSEO=5.85e-08 $X=8878 $Y=4557  $PIN_XY=8908,4554,8878,4557,8848,4554 $DEVICE_ID=1001
MM15 GND! 371 266 nmos  W=2.1e-08 L=1.5e-08 NFIN=2 ADEO=2.835e-16 ASEO=5.67e-16 PDEO=5.85e-08
+	 PSEO=1.17e-07 $X=8542 $Y=7242  $PIN_XY=8572,7326,8542,7242,8512,7326 $DEVICE_ID=1001
MM16 BL<14> WL<7> 371 nmos  W=2.1e-08 L=1.5e-08 NFIN=2 ADEO=2.835e-16 ASEO=5.67e-16 PDEO=5.85e-08
+	 PSEO=1.17e-07 $X=8542 $Y=6693  $PIN_XY=8572,6696,8542,6693,8512,6696 $DEVICE_ID=1001
MM17 GND! 267 252 nmos  W=2.1e-08 L=1.5e-08 NFIN=2 ADEO=2.835e-16 ASEO=5.67e-16 PDEO=5.85e-08
+	 PSEO=1.17e-07 $X=8542 $Y=6318  $PIN_XY=8572,6402,8542,6318,8512,6402 $DEVICE_ID=1001
MM18 BL<14> WL<6> 267 nmos  W=2.1e-08 L=1.5e-08 NFIN=2 ADEO=2.835e-16 ASEO=5.67e-16 PDEO=5.85e-08
+	 PSEO=1.17e-07 $X=8542 $Y=5769  $PIN_XY=8572,5772,8542,5769,8512,5772 $DEVICE_ID=1001
MM19 GND! 253 250 nmos  W=2.1e-08 L=1.5e-08 NFIN=2 ADEO=2.835e-16 ASEO=5.67e-16 PDEO=5.85e-08
+	 PSEO=1.17e-07 $X=8542 $Y=5394  $PIN_XY=8572,5478,8542,5394,8512,5478 $DEVICE_ID=1001
MM20 BL<14> WL<5> 253 nmos  W=2.1e-08 L=1.5e-08 NFIN=2 ADEO=2.835e-16 ASEO=5.67e-16 PDEO=5.85e-08
+	 PSEO=1.17e-07 $X=8542 $Y=4845  $PIN_XY=8572,4848,8542,4845,8512,4848 $DEVICE_ID=1001
MM21 GND! 251 156 nmos  W=2.1e-08 L=1.5e-08 NFIN=2 ADEO=2.835e-16 ASEO=5.67e-16 PDEO=5.85e-08
+	 PSEO=1.17e-07 $X=8542 $Y=4470  $PIN_XY=8572,4554,8542,4470,8512,4554 $DEVICE_ID=1001
MM22 266 WL<7> BLB<14> nmos  W=2.1e-08 L=1.5e-08 NFIN=2 ADEO=5.67e-16 ASEO=2.835e-16 PDEO=1.17e-07
+	 PSEO=5.85e-08 $X=8374 $Y=7329  $PIN_XY=8404,7326,8374,7329,8344,7326 $DEVICE_ID=1001
MM23 371 266 GND! nmos  W=2.1e-08 L=1.5e-08 NFIN=2 ADEO=5.67e-16 ASEO=2.835e-16 PDEO=1.17e-07
+	 PSEO=5.85e-08 $X=8374 $Y=6780  $PIN_XY=8404,6696,8374,6780,8344,6696 $DEVICE_ID=1001
MM24 252 WL<6> BLB<14> nmos  W=2.1e-08 L=1.5e-08 NFIN=2 ADEO=5.67e-16 ASEO=2.835e-16 PDEO=1.17e-07
+	 PSEO=5.85e-08 $X=8374 $Y=6405  $PIN_XY=8404,6402,8374,6405,8344,6402 $DEVICE_ID=1001
MM25 267 252 GND! nmos  W=2.1e-08 L=1.5e-08 NFIN=2 ADEO=5.67e-16 ASEO=2.835e-16 PDEO=1.17e-07
+	 PSEO=5.85e-08 $X=8374 $Y=5856  $PIN_XY=8404,5772,8374,5856,8344,5772 $DEVICE_ID=1001
MM26 250 WL<5> BLB<14> nmos  W=2.1e-08 L=1.5e-08 NFIN=2 ADEO=5.67e-16 ASEO=2.835e-16 PDEO=1.17e-07
+	 PSEO=5.85e-08 $X=8374 $Y=5481  $PIN_XY=8404,5478,8374,5481,8344,5478 $DEVICE_ID=1001
MM27 253 250 GND! nmos  W=2.1e-08 L=1.5e-08 NFIN=2 ADEO=5.67e-16 ASEO=2.835e-16 PDEO=1.17e-07
+	 PSEO=5.85e-08 $X=8374 $Y=4932  $PIN_XY=8404,4848,8374,4932,8344,4848 $DEVICE_ID=1001
MM28 156 WL<4> BLB<14> nmos  W=2.1e-08 L=1.5e-08 NFIN=2 ADEO=5.67e-16 ASEO=2.835e-16 PDEO=1.17e-07
+	 PSEO=5.85e-08 $X=8374 $Y=4557  $PIN_XY=8404,4554,8374,4557,8344,4554 $DEVICE_ID=1001
MM29 GND! 365 262 nmos  W=2.1e-08 L=1.5e-08 NFIN=2 ADEO=2.835e-16 ASEO=5.67e-16 PDEO=5.85e-08
+	 PSEO=1.17e-07 $X=8038 $Y=7242  $PIN_XY=8068,7326,8038,7242,8008,7326 $DEVICE_ID=1001
MM30 BL<13> WL<7> 365 nmos  W=2.1e-08 L=1.5e-08 NFIN=2 ADEO=2.835e-16 ASEO=5.67e-16 PDEO=5.85e-08
+	 PSEO=1.17e-07 $X=8038 $Y=6693  $PIN_XY=8068,6696,8038,6693,8008,6696 $DEVICE_ID=1001
MM31 GND! 263 256 nmos  W=2.1e-08 L=1.5e-08 NFIN=2 ADEO=2.835e-16 ASEO=5.67e-16 PDEO=5.85e-08
+	 PSEO=1.17e-07 $X=8038 $Y=6318  $PIN_XY=8068,6402,8038,6318,8008,6402 $DEVICE_ID=1001
MM32 BL<13> WL<6> 263 nmos  W=2.1e-08 L=1.5e-08 NFIN=2 ADEO=2.835e-16 ASEO=5.67e-16 PDEO=5.85e-08
+	 PSEO=1.17e-07 $X=8038 $Y=5769  $PIN_XY=8068,5772,8038,5769,8008,5772 $DEVICE_ID=1001
MM33 GND! 257 246 nmos  W=2.1e-08 L=1.5e-08 NFIN=2 ADEO=2.835e-16 ASEO=5.67e-16 PDEO=5.85e-08
+	 PSEO=1.17e-07 $X=8038 $Y=5394  $PIN_XY=8068,5478,8038,5394,8008,5478 $DEVICE_ID=1001
MM34 BL<13> WL<5> 257 nmos  W=2.1e-08 L=1.5e-08 NFIN=2 ADEO=2.835e-16 ASEO=5.67e-16 PDEO=5.85e-08
+	 PSEO=1.17e-07 $X=8038 $Y=4845  $PIN_XY=8068,4848,8038,4845,8008,4848 $DEVICE_ID=1001
MM35 GND! 247 160 nmos  W=2.1e-08 L=1.5e-08 NFIN=2 ADEO=2.835e-16 ASEO=5.67e-16 PDEO=5.85e-08
+	 PSEO=1.17e-07 $X=8038 $Y=4470  $PIN_XY=8068,4554,8038,4470,8008,4554 $DEVICE_ID=1001
MM36 262 WL<7> BLB<13> nmos  W=2.1e-08 L=1.5e-08 NFIN=2 ADEO=5.67e-16 ASEO=2.835e-16 PDEO=1.17e-07
+	 PSEO=5.85e-08 $X=7870 $Y=7329  $PIN_XY=7900,7326,7870,7329,7840,7326 $DEVICE_ID=1001
MM37 365 262 GND! nmos  W=2.1e-08 L=1.5e-08 NFIN=2 ADEO=5.67e-16 ASEO=2.835e-16 PDEO=1.17e-07
+	 PSEO=5.85e-08 $X=7870 $Y=6780  $PIN_XY=7900,6696,7870,6780,7840,6696 $DEVICE_ID=1001
MM38 256 WL<6> BLB<13> nmos  W=2.1e-08 L=1.5e-08 NFIN=2 ADEO=5.67e-16 ASEO=2.835e-16 PDEO=1.17e-07
+	 PSEO=5.85e-08 $X=7870 $Y=6405  $PIN_XY=7900,6402,7870,6405,7840,6402 $DEVICE_ID=1001
MM39 263 256 GND! nmos  W=2.1e-08 L=1.5e-08 NFIN=2 ADEO=5.67e-16 ASEO=2.835e-16 PDEO=1.17e-07
+	 PSEO=5.85e-08 $X=7870 $Y=5856  $PIN_XY=7900,5772,7870,5856,7840,5772 $DEVICE_ID=1001
MM40 246 WL<5> BLB<13> nmos  W=2.1e-08 L=1.5e-08 NFIN=2 ADEO=5.67e-16 ASEO=2.835e-16 PDEO=1.17e-07
+	 PSEO=5.85e-08 $X=7870 $Y=5481  $PIN_XY=7900,5478,7870,5481,7840,5478 $DEVICE_ID=1001
MM41 257 246 GND! nmos  W=2.1e-08 L=1.5e-08 NFIN=2 ADEO=5.67e-16 ASEO=2.835e-16 PDEO=1.17e-07
+	 PSEO=5.85e-08 $X=7870 $Y=4932  $PIN_XY=7900,4848,7870,4932,7840,4848 $DEVICE_ID=1001
MM42 160 WL<4> BLB<13> nmos  W=2.1e-08 L=1.5e-08 NFIN=2 ADEO=5.67e-16 ASEO=2.835e-16 PDEO=1.17e-07
+	 PSEO=5.85e-08 $X=7870 $Y=4557  $PIN_XY=7900,4554,7870,4557,7840,4554 $DEVICE_ID=1001
MM43 GND! 362 260 nmos  W=2.1e-08 L=1.5e-08 NFIN=2 ADEO=2.835e-16 ASEO=5.67e-16 PDEO=5.85e-08
+	 PSEO=1.17e-07 $X=7534 $Y=7242  $PIN_XY=7564,7326,7534,7242,7504,7326 $DEVICE_ID=1001
MM44 BL<12> WL<7> 362 nmos  W=2.1e-08 L=1.5e-08 NFIN=2 ADEO=2.835e-16 ASEO=5.67e-16 PDEO=5.85e-08
+	 PSEO=1.17e-07 $X=7534 $Y=6693  $PIN_XY=7564,6696,7534,6693,7504,6696 $DEVICE_ID=1001
MM45 GND! 261 258 nmos  W=2.1e-08 L=1.5e-08 NFIN=2 ADEO=2.835e-16 ASEO=5.67e-16 PDEO=5.85e-08
+	 PSEO=1.17e-07 $X=7534 $Y=6318  $PIN_XY=7564,6402,7534,6318,7504,6402 $DEVICE_ID=1001
MM46 BL<12> WL<6> 261 nmos  W=2.1e-08 L=1.5e-08 NFIN=2 ADEO=2.835e-16 ASEO=5.67e-16 PDEO=5.85e-08
+	 PSEO=1.17e-07 $X=7534 $Y=5769  $PIN_XY=7564,5772,7534,5769,7504,5772 $DEVICE_ID=1001
MM47 GND! 259 244 nmos  W=2.1e-08 L=1.5e-08 NFIN=2 ADEO=2.835e-16 ASEO=5.67e-16 PDEO=5.85e-08
+	 PSEO=1.17e-07 $X=7534 $Y=5394  $PIN_XY=7564,5478,7534,5394,7504,5478 $DEVICE_ID=1001
MM48 BL<12> WL<5> 259 nmos  W=2.1e-08 L=1.5e-08 NFIN=2 ADEO=2.835e-16 ASEO=5.67e-16 PDEO=5.85e-08
+	 PSEO=1.17e-07 $X=7534 $Y=4845  $PIN_XY=7564,4848,7534,4845,7504,4848 $DEVICE_ID=1001
MM49 GND! 245 162 nmos  W=2.1e-08 L=1.5e-08 NFIN=2 ADEO=2.835e-16 ASEO=5.67e-16 PDEO=5.85e-08
+	 PSEO=1.17e-07 $X=7534 $Y=4470  $PIN_XY=7564,4554,7534,4470,7504,4554 $DEVICE_ID=1001
MM50 260 WL<7> BLB<12> nmos  W=2.1e-08 L=1.5e-08 NFIN=2 ADEO=5.67e-16 ASEO=2.835e-16 PDEO=1.17e-07
+	 PSEO=5.85e-08 $X=7366 $Y=7329  $PIN_XY=7396,7326,7366,7329,7336,7326 $DEVICE_ID=1001
MM51 362 260 GND! nmos  W=2.1e-08 L=1.5e-08 NFIN=2 ADEO=5.67e-16 ASEO=2.835e-16 PDEO=1.17e-07
+	 PSEO=5.85e-08 $X=7366 $Y=6780  $PIN_XY=7396,6696,7366,6780,7336,6696 $DEVICE_ID=1001
MM52 258 WL<6> BLB<12> nmos  W=2.1e-08 L=1.5e-08 NFIN=2 ADEO=5.67e-16 ASEO=2.835e-16 PDEO=1.17e-07
+	 PSEO=5.85e-08 $X=7366 $Y=6405  $PIN_XY=7396,6402,7366,6405,7336,6402 $DEVICE_ID=1001
MM53 261 258 GND! nmos  W=2.1e-08 L=1.5e-08 NFIN=2 ADEO=5.67e-16 ASEO=2.835e-16 PDEO=1.17e-07
+	 PSEO=5.85e-08 $X=7366 $Y=5856  $PIN_XY=7396,5772,7366,5856,7336,5772 $DEVICE_ID=1001
MM54 244 WL<5> BLB<12> nmos  W=2.1e-08 L=1.5e-08 NFIN=2 ADEO=5.67e-16 ASEO=2.835e-16 PDEO=1.17e-07
+	 PSEO=5.85e-08 $X=7366 $Y=5481  $PIN_XY=7396,5478,7366,5481,7336,5478 $DEVICE_ID=1001
MM55 259 244 GND! nmos  W=2.1e-08 L=1.5e-08 NFIN=2 ADEO=5.67e-16 ASEO=2.835e-16 PDEO=1.17e-07
+	 PSEO=5.85e-08 $X=7366 $Y=4932  $PIN_XY=7396,4848,7366,4932,7336,4848 $DEVICE_ID=1001
MM56 162 WL<4> BLB<12> nmos  W=2.1e-08 L=1.5e-08 NFIN=2 ADEO=5.67e-16 ASEO=2.835e-16 PDEO=1.17e-07
+	 PSEO=5.85e-08 $X=7366 $Y=4557  $PIN_XY=7396,4554,7366,4557,7336,4554 $DEVICE_ID=1001
MM57 GND! 356 240 nmos  W=2.1e-08 L=1.5e-08 NFIN=2 ADEO=2.835e-16 ASEO=5.67e-16 PDEO=5.85e-08
+	 PSEO=1.17e-07 $X=6694 $Y=7242  $PIN_XY=6724,7326,6694,7242,6664,7326 $DEVICE_ID=1001
MM58 BL<11> WL<7> 356 nmos  W=2.1e-08 L=1.5e-08 NFIN=2 ADEO=2.835e-16 ASEO=5.67e-16 PDEO=5.85e-08
+	 PSEO=1.17e-07 $X=6694 $Y=6693  $PIN_XY=6724,6696,6694,6693,6664,6696 $DEVICE_ID=1001
MM59 GND! 241 234 nmos  W=2.1e-08 L=1.5e-08 NFIN=2 ADEO=2.835e-16 ASEO=5.67e-16 PDEO=5.85e-08
+	 PSEO=1.17e-07 $X=6694 $Y=6318  $PIN_XY=6724,6402,6694,6318,6664,6402 $DEVICE_ID=1001
MM60 BL<11> WL<6> 241 nmos  W=2.1e-08 L=1.5e-08 NFIN=2 ADEO=2.835e-16 ASEO=5.67e-16 PDEO=5.85e-08
+	 PSEO=1.17e-07 $X=6694 $Y=5769  $PIN_XY=6724,5772,6694,5769,6664,5772 $DEVICE_ID=1001
MM61 GND! 235 228 nmos  W=2.1e-08 L=1.5e-08 NFIN=2 ADEO=2.835e-16 ASEO=5.67e-16 PDEO=5.85e-08
+	 PSEO=1.17e-07 $X=6694 $Y=5394  $PIN_XY=6724,5478,6694,5394,6664,5478 $DEVICE_ID=1001
MM62 BL<11> WL<5> 235 nmos  W=2.1e-08 L=1.5e-08 NFIN=2 ADEO=2.835e-16 ASEO=5.67e-16 PDEO=5.85e-08
+	 PSEO=1.17e-07 $X=6694 $Y=4845  $PIN_XY=6724,4848,6694,4845,6664,4848 $DEVICE_ID=1001
MM63 GND! 229 130 nmos  W=2.1e-08 L=1.5e-08 NFIN=2 ADEO=2.835e-16 ASEO=5.67e-16 PDEO=5.85e-08
+	 PSEO=1.17e-07 $X=6694 $Y=4470  $PIN_XY=6724,4554,6694,4470,6664,4554 $DEVICE_ID=1001
MM64 240 WL<7> BLB<11> nmos  W=2.1e-08 L=1.5e-08 NFIN=2 ADEO=5.67e-16 ASEO=2.835e-16 PDEO=1.17e-07
+	 PSEO=5.85e-08 $X=6526 $Y=7329  $PIN_XY=6556,7326,6526,7329,6496,7326 $DEVICE_ID=1001
MM65 356 240 GND! nmos  W=2.1e-08 L=1.5e-08 NFIN=2 ADEO=5.67e-16 ASEO=2.835e-16 PDEO=1.17e-07
+	 PSEO=5.85e-08 $X=6526 $Y=6780  $PIN_XY=6556,6696,6526,6780,6496,6696 $DEVICE_ID=1001
MM66 234 WL<6> BLB<11> nmos  W=2.1e-08 L=1.5e-08 NFIN=2 ADEO=5.67e-16 ASEO=2.835e-16 PDEO=1.17e-07
+	 PSEO=5.85e-08 $X=6526 $Y=6405  $PIN_XY=6556,6402,6526,6405,6496,6402 $DEVICE_ID=1001
MM67 241 234 GND! nmos  W=2.1e-08 L=1.5e-08 NFIN=2 ADEO=5.67e-16 ASEO=2.835e-16 PDEO=1.17e-07
+	 PSEO=5.85e-08 $X=6526 $Y=5856  $PIN_XY=6556,5772,6526,5856,6496,5772 $DEVICE_ID=1001
MM68 228 WL<5> BLB<11> nmos  W=2.1e-08 L=1.5e-08 NFIN=2 ADEO=5.67e-16 ASEO=2.835e-16 PDEO=1.17e-07
+	 PSEO=5.85e-08 $X=6526 $Y=5481  $PIN_XY=6556,5478,6526,5481,6496,5478 $DEVICE_ID=1001
MM69 235 228 GND! nmos  W=2.1e-08 L=1.5e-08 NFIN=2 ADEO=5.67e-16 ASEO=2.835e-16 PDEO=1.17e-07
+	 PSEO=5.85e-08 $X=6526 $Y=4932  $PIN_XY=6556,4848,6526,4932,6496,4848 $DEVICE_ID=1001
MM70 130 WL<4> BLB<11> nmos  W=2.1e-08 L=1.5e-08 NFIN=2 ADEO=5.67e-16 ASEO=2.835e-16 PDEO=1.17e-07
+	 PSEO=5.85e-08 $X=6526 $Y=4557  $PIN_XY=6556,4554,6526,4557,6496,4554 $DEVICE_ID=1001
MM71 GND! 353 238 nmos  W=2.1e-08 L=1.5e-08 NFIN=2 ADEO=2.835e-16 ASEO=5.67e-16 PDEO=5.85e-08
+	 PSEO=1.17e-07 $X=6190 $Y=7242  $PIN_XY=6220,7326,6190,7242,6160,7326 $DEVICE_ID=1001
MM72 BL<10> WL<7> 353 nmos  W=2.1e-08 L=1.5e-08 NFIN=2 ADEO=2.835e-16 ASEO=5.67e-16 PDEO=5.85e-08
+	 PSEO=1.17e-07 $X=6190 $Y=6693  $PIN_XY=6220,6696,6190,6693,6160,6696 $DEVICE_ID=1001
MM73 GND! 239 236 nmos  W=2.1e-08 L=1.5e-08 NFIN=2 ADEO=2.835e-16 ASEO=5.67e-16 PDEO=5.85e-08
+	 PSEO=1.17e-07 $X=6190 $Y=6318  $PIN_XY=6220,6402,6190,6318,6160,6402 $DEVICE_ID=1001
MM74 BL<10> WL<6> 239 nmos  W=2.1e-08 L=1.5e-08 NFIN=2 ADEO=2.835e-16 ASEO=5.67e-16 PDEO=5.85e-08
+	 PSEO=1.17e-07 $X=6190 $Y=5769  $PIN_XY=6220,5772,6190,5769,6160,5772 $DEVICE_ID=1001
MM75 GND! 237 226 nmos  W=2.1e-08 L=1.5e-08 NFIN=2 ADEO=2.835e-16 ASEO=5.67e-16 PDEO=5.85e-08
+	 PSEO=1.17e-07 $X=6190 $Y=5394  $PIN_XY=6220,5478,6190,5394,6160,5478 $DEVICE_ID=1001
MM76 BL<10> WL<5> 237 nmos  W=2.1e-08 L=1.5e-08 NFIN=2 ADEO=2.835e-16 ASEO=5.67e-16 PDEO=5.85e-08
+	 PSEO=1.17e-07 $X=6190 $Y=4845  $PIN_XY=6220,4848,6190,4845,6160,4848 $DEVICE_ID=1001
MM77 GND! 227 132 nmos  W=2.1e-08 L=1.5e-08 NFIN=2 ADEO=2.835e-16 ASEO=5.67e-16 PDEO=5.85e-08
+	 PSEO=1.17e-07 $X=6190 $Y=4470  $PIN_XY=6220,4554,6190,4470,6160,4554 $DEVICE_ID=1001
MM78 238 WL<7> BLB<10> nmos  W=2.1e-08 L=1.5e-08 NFIN=2 ADEO=5.67e-16 ASEO=2.835e-16 PDEO=1.17e-07
+	 PSEO=5.85e-08 $X=6022 $Y=7329  $PIN_XY=6052,7326,6022,7329,5992,7326 $DEVICE_ID=1001
MM79 353 238 GND! nmos  W=2.1e-08 L=1.5e-08 NFIN=2 ADEO=5.67e-16 ASEO=2.835e-16 PDEO=1.17e-07
+	 PSEO=5.85e-08 $X=6022 $Y=6780  $PIN_XY=6052,6696,6022,6780,5992,6696 $DEVICE_ID=1001
MM80 236 WL<6> BLB<10> nmos  W=2.1e-08 L=1.5e-08 NFIN=2 ADEO=5.67e-16 ASEO=2.835e-16 PDEO=1.17e-07
+	 PSEO=5.85e-08 $X=6022 $Y=6405  $PIN_XY=6052,6402,6022,6405,5992,6402 $DEVICE_ID=1001
MM81 239 236 GND! nmos  W=2.1e-08 L=1.5e-08 NFIN=2 ADEO=5.67e-16 ASEO=2.835e-16 PDEO=1.17e-07
+	 PSEO=5.85e-08 $X=6022 $Y=5856  $PIN_XY=6052,5772,6022,5856,5992,5772 $DEVICE_ID=1001
MM82 226 WL<5> BLB<10> nmos  W=2.1e-08 L=1.5e-08 NFIN=2 ADEO=5.67e-16 ASEO=2.835e-16 PDEO=1.17e-07
+	 PSEO=5.85e-08 $X=6022 $Y=5481  $PIN_XY=6052,5478,6022,5481,5992,5478 $DEVICE_ID=1001
MM83 237 226 GND! nmos  W=2.1e-08 L=1.5e-08 NFIN=2 ADEO=5.67e-16 ASEO=2.835e-16 PDEO=1.17e-07
+	 PSEO=5.85e-08 $X=6022 $Y=4932  $PIN_XY=6052,4848,6022,4932,5992,4848 $DEVICE_ID=1001
MM84 132 WL<4> BLB<10> nmos  W=2.1e-08 L=1.5e-08 NFIN=2 ADEO=5.67e-16 ASEO=2.835e-16 PDEO=1.17e-07
+	 PSEO=5.85e-08 $X=6022 $Y=4557  $PIN_XY=6052,4554,6022,4557,5992,4554 $DEVICE_ID=1001
MM85 GND! 359 242 nmos  W=2.1e-08 L=1.5e-08 NFIN=2 ADEO=2.835e-16 ASEO=5.67e-16 PDEO=5.85e-08
+	 PSEO=1.17e-07 $X=5686 $Y=7242  $PIN_XY=5716,7326,5686,7242,5656,7326 $DEVICE_ID=1001
MM86 BL<9> WL<7> 359 nmos  W=2.1e-08 L=1.5e-08 NFIN=2 ADEO=2.835e-16 ASEO=5.67e-16 PDEO=5.85e-08
+	 PSEO=1.17e-07 $X=5686 $Y=6693  $PIN_XY=5716,6696,5686,6693,5656,6696 $DEVICE_ID=1001
MM87 GND! 243 232 nmos  W=2.1e-08 L=1.5e-08 NFIN=2 ADEO=2.835e-16 ASEO=5.67e-16 PDEO=5.85e-08
+	 PSEO=1.17e-07 $X=5686 $Y=6318  $PIN_XY=5716,6402,5686,6318,5656,6402 $DEVICE_ID=1001
MM88 BL<9> WL<6> 243 nmos  W=2.1e-08 L=1.5e-08 NFIN=2 ADEO=2.835e-16 ASEO=5.67e-16 PDEO=5.85e-08
+	 PSEO=1.17e-07 $X=5686 $Y=5769  $PIN_XY=5716,5772,5686,5769,5656,5772 $DEVICE_ID=1001
MM89 GND! 233 230 nmos  W=2.1e-08 L=1.5e-08 NFIN=2 ADEO=2.835e-16 ASEO=5.67e-16 PDEO=5.85e-08
+	 PSEO=1.17e-07 $X=5686 $Y=5394  $PIN_XY=5716,5478,5686,5394,5656,5478 $DEVICE_ID=1001
MM90 BL<9> WL<5> 233 nmos  W=2.1e-08 L=1.5e-08 NFIN=2 ADEO=2.835e-16 ASEO=5.67e-16 PDEO=5.85e-08
+	 PSEO=1.17e-07 $X=5686 $Y=4845  $PIN_XY=5716,4848,5686,4845,5656,4848 $DEVICE_ID=1001
MM91 GND! 231 128 nmos  W=2.1e-08 L=1.5e-08 NFIN=2 ADEO=2.835e-16 ASEO=5.67e-16 PDEO=5.85e-08
+	 PSEO=1.17e-07 $X=5686 $Y=4470  $PIN_XY=5716,4554,5686,4470,5656,4554 $DEVICE_ID=1001
MM92 242 WL<7> BLB<9> nmos  W=2.1e-08 L=1.5e-08 NFIN=2 ADEO=5.67e-16 ASEO=2.835e-16 PDEO=1.17e-07
+	 PSEO=5.85e-08 $X=5518 $Y=7329  $PIN_XY=5548,7326,5518,7329,5488,7326 $DEVICE_ID=1001
MM93 359 242 GND! nmos  W=2.1e-08 L=1.5e-08 NFIN=2 ADEO=5.67e-16 ASEO=2.835e-16 PDEO=1.17e-07
+	 PSEO=5.85e-08 $X=5518 $Y=6780  $PIN_XY=5548,6696,5518,6780,5488,6696 $DEVICE_ID=1001
MM94 232 WL<6> BLB<9> nmos  W=2.1e-08 L=1.5e-08 NFIN=2 ADEO=5.67e-16 ASEO=2.835e-16 PDEO=1.17e-07
+	 PSEO=5.85e-08 $X=5518 $Y=6405  $PIN_XY=5548,6402,5518,6405,5488,6402 $DEVICE_ID=1001
MM95 243 232 GND! nmos  W=2.1e-08 L=1.5e-08 NFIN=2 ADEO=5.67e-16 ASEO=2.835e-16 PDEO=1.17e-07
+	 PSEO=5.85e-08 $X=5518 $Y=5856  $PIN_XY=5548,5772,5518,5856,5488,5772 $DEVICE_ID=1001
MM96 230 WL<5> BLB<9> nmos  W=2.1e-08 L=1.5e-08 NFIN=2 ADEO=5.67e-16 ASEO=2.835e-16 PDEO=1.17e-07
+	 PSEO=5.85e-08 $X=5518 $Y=5481  $PIN_XY=5548,5478,5518,5481,5488,5478 $DEVICE_ID=1001
MM97 233 230 GND! nmos  W=2.1e-08 L=1.5e-08 NFIN=2 ADEO=5.67e-16 ASEO=2.835e-16 PDEO=1.17e-07
+	 PSEO=5.85e-08 $X=5518 $Y=4932  $PIN_XY=5548,4848,5518,4932,5488,4848 $DEVICE_ID=1001
MM98 128 WL<4> BLB<9> nmos  W=2.1e-08 L=1.5e-08 NFIN=2 ADEO=5.67e-16 ASEO=2.835e-16 PDEO=1.17e-07
+	 PSEO=5.85e-08 $X=5518 $Y=4557  $PIN_XY=5548,4554,5518,4557,5488,4554 $DEVICE_ID=1001
MM99 GND! 350 224 nmos  W=2.1e-08 L=1.5e-08 NFIN=2 ADEO=2.835e-16 ASEO=5.67e-16 PDEO=5.85e-08
+	 PSEO=1.17e-07 $X=5182 $Y=7242  $PIN_XY=5212,7326,5182,7242,5152,7326 $DEVICE_ID=1001
MM100 BL<8> WL<7> 350 nmos  W=2.1e-08 L=1.5e-08 NFIN=2 ADEO=2.835e-16 ASEO=5.67e-16 PDEO=5.85e-08
+	 PSEO=1.17e-07 $X=5182 $Y=6693  $PIN_XY=5212,6696,5182,6693,5152,6696 $DEVICE_ID=1001
MM101 GND! 225 214 nmos  W=2.1e-08 L=1.5e-08 NFIN=2 ADEO=2.835e-16 ASEO=5.67e-16 PDEO=5.85e-08
+	 PSEO=1.17e-07 $X=5182 $Y=6318  $PIN_XY=5212,6402,5182,6318,5152,6402 $DEVICE_ID=1001
MM102 BL<8> WL<6> 225 nmos  W=2.1e-08 L=1.5e-08 NFIN=2 ADEO=2.835e-16 ASEO=5.67e-16 PDEO=5.85e-08
+	 PSEO=1.17e-07 $X=5182 $Y=5769  $PIN_XY=5212,5772,5182,5769,5152,5772 $DEVICE_ID=1001
MM103 GND! 215 212 nmos  W=2.1e-08 L=1.5e-08 NFIN=2 ADEO=2.835e-16 ASEO=5.67e-16 PDEO=5.85e-08
+	 PSEO=1.17e-07 $X=5182 $Y=5394  $PIN_XY=5212,5478,5182,5394,5152,5478 $DEVICE_ID=1001
MM104 BL<8> WL<5> 215 nmos  W=2.1e-08 L=1.5e-08 NFIN=2 ADEO=2.835e-16 ASEO=5.67e-16 PDEO=5.85e-08
+	 PSEO=1.17e-07 $X=5182 $Y=4845  $PIN_XY=5212,4848,5182,4845,5152,4848 $DEVICE_ID=1001
MM105 GND! 213 104 nmos  W=2.1e-08 L=1.5e-08 NFIN=2 ADEO=2.835e-16 ASEO=5.67e-16 PDEO=5.85e-08
+	 PSEO=1.17e-07 $X=5182 $Y=4470  $PIN_XY=5212,4554,5182,4470,5152,4554 $DEVICE_ID=1001
MM106 224 WL<7> BLB<8> nmos  W=2.1e-08 L=1.5e-08 NFIN=2 ADEO=5.67e-16 ASEO=2.835e-16 PDEO=1.17e-07
+	 PSEO=5.85e-08 $X=5014 $Y=7329  $PIN_XY=5044,7326,5014,7329,4984,7326 $DEVICE_ID=1001
MM107 350 224 GND! nmos  W=2.1e-08 L=1.5e-08 NFIN=2 ADEO=5.67e-16 ASEO=2.835e-16 PDEO=1.17e-07
+	 PSEO=5.85e-08 $X=5014 $Y=6780  $PIN_XY=5044,6696,5014,6780,4984,6696 $DEVICE_ID=1001
MM108 214 WL<6> BLB<8> nmos  W=2.1e-08 L=1.5e-08 NFIN=2 ADEO=5.67e-16 ASEO=2.835e-16 PDEO=1.17e-07
+	 PSEO=5.85e-08 $X=5014 $Y=6405  $PIN_XY=5044,6402,5014,6405,4984,6402 $DEVICE_ID=1001
MM109 225 214 GND! nmos  W=2.1e-08 L=1.5e-08 NFIN=2 ADEO=5.67e-16 ASEO=2.835e-16 PDEO=1.17e-07
+	 PSEO=5.85e-08 $X=5014 $Y=5856  $PIN_XY=5044,5772,5014,5856,4984,5772 $DEVICE_ID=1001
MM110 212 WL<5> BLB<8> nmos  W=2.1e-08 L=1.5e-08 NFIN=2 ADEO=5.67e-16 ASEO=2.835e-16 PDEO=1.17e-07
+	 PSEO=5.85e-08 $X=5014 $Y=5481  $PIN_XY=5044,5478,5014,5481,4984,5478 $DEVICE_ID=1001
MM111 215 212 GND! nmos  W=2.1e-08 L=1.5e-08 NFIN=2 ADEO=5.67e-16 ASEO=2.835e-16 PDEO=1.17e-07
+	 PSEO=5.85e-08 $X=5014 $Y=4932  $PIN_XY=5044,4848,5014,4932,4984,4848 $DEVICE_ID=1001
MM112 104 WL<4> BLB<8> nmos  W=2.1e-08 L=1.5e-08 NFIN=2 ADEO=5.67e-16 ASEO=2.835e-16 PDEO=1.17e-07
+	 PSEO=5.85e-08 $X=5014 $Y=4557  $PIN_XY=5044,4554,5014,4557,4984,4554 $DEVICE_ID=1001
MM113 GND! 347 222 nmos  W=2.1e-08 L=1.5e-08 NFIN=2 ADEO=2.835e-16 ASEO=5.67e-16 PDEO=5.85e-08
+	 PSEO=1.17e-07 $X=4342 $Y=7242  $PIN_XY=4372,7326,4342,7242,4312,7326 $DEVICE_ID=1001
MM114 BL<7> WL<7> 347 nmos  W=2.1e-08 L=1.5e-08 NFIN=2 ADEO=2.835e-16 ASEO=5.67e-16 PDEO=5.85e-08
+	 PSEO=1.17e-07 $X=4342 $Y=6693  $PIN_XY=4372,6696,4342,6693,4312,6696 $DEVICE_ID=1001
MM115 GND! 223 216 nmos  W=2.1e-08 L=1.5e-08 NFIN=2 ADEO=2.835e-16 ASEO=5.67e-16 PDEO=5.85e-08
+	 PSEO=1.17e-07 $X=4342 $Y=6318  $PIN_XY=4372,6402,4342,6318,4312,6402 $DEVICE_ID=1001
MM116 BL<7> WL<6> 223 nmos  W=2.1e-08 L=1.5e-08 NFIN=2 ADEO=2.835e-16 ASEO=5.67e-16 PDEO=5.85e-08
+	 PSEO=1.17e-07 $X=4342 $Y=5769  $PIN_XY=4372,5772,4342,5769,4312,5772 $DEVICE_ID=1001
MM117 GND! 217 210 nmos  W=2.1e-08 L=1.5e-08 NFIN=2 ADEO=2.835e-16 ASEO=5.67e-16 PDEO=5.85e-08
+	 PSEO=1.17e-07 $X=4342 $Y=5394  $PIN_XY=4372,5478,4342,5394,4312,5478 $DEVICE_ID=1001
MM118 BL<7> WL<5> 217 nmos  W=2.1e-08 L=1.5e-08 NFIN=2 ADEO=2.835e-16 ASEO=5.67e-16 PDEO=5.85e-08
+	 PSEO=1.17e-07 $X=4342 $Y=4845  $PIN_XY=4372,4848,4342,4845,4312,4848 $DEVICE_ID=1001
MM119 GND! 211 106 nmos  W=2.1e-08 L=1.5e-08 NFIN=2 ADEO=2.835e-16 ASEO=5.67e-16 PDEO=5.85e-08
+	 PSEO=1.17e-07 $X=4342 $Y=4470  $PIN_XY=4372,4554,4342,4470,4312,4554 $DEVICE_ID=1001
MM120 222 WL<7> BLB<7> nmos  W=2.1e-08 L=1.5e-08 NFIN=2 ADEO=5.67e-16 ASEO=2.835e-16 PDEO=1.17e-07
+	 PSEO=5.85e-08 $X=4174 $Y=7329  $PIN_XY=4204,7326,4174,7329,4144,7326 $DEVICE_ID=1001
MM121 347 222 GND! nmos  W=2.1e-08 L=1.5e-08 NFIN=2 ADEO=5.67e-16 ASEO=2.835e-16 PDEO=1.17e-07
+	 PSEO=5.85e-08 $X=4174 $Y=6780  $PIN_XY=4204,6696,4174,6780,4144,6696 $DEVICE_ID=1001
MM122 216 WL<6> BLB<7> nmos  W=2.1e-08 L=1.5e-08 NFIN=2 ADEO=5.67e-16 ASEO=2.835e-16 PDEO=1.17e-07
+	 PSEO=5.85e-08 $X=4174 $Y=6405  $PIN_XY=4204,6402,4174,6405,4144,6402 $DEVICE_ID=1001
MM123 223 216 GND! nmos  W=2.1e-08 L=1.5e-08 NFIN=2 ADEO=5.67e-16 ASEO=2.835e-16 PDEO=1.17e-07
+	 PSEO=5.85e-08 $X=4174 $Y=5856  $PIN_XY=4204,5772,4174,5856,4144,5772 $DEVICE_ID=1001
MM124 210 WL<5> BLB<7> nmos  W=2.1e-08 L=1.5e-08 NFIN=2 ADEO=5.67e-16 ASEO=2.835e-16 PDEO=1.17e-07
+	 PSEO=5.85e-08 $X=4174 $Y=5481  $PIN_XY=4204,5478,4174,5481,4144,5478 $DEVICE_ID=1001
MM125 217 210 GND! nmos  W=2.1e-08 L=1.5e-08 NFIN=2 ADEO=5.67e-16 ASEO=2.835e-16 PDEO=1.17e-07
+	 PSEO=5.85e-08 $X=4174 $Y=4932  $PIN_XY=4204,4848,4174,4932,4144,4848 $DEVICE_ID=1001
MM126 106 WL<4> BLB<7> nmos  W=2.1e-08 L=1.5e-08 NFIN=2 ADEO=5.67e-16 ASEO=2.835e-16 PDEO=1.17e-07
+	 PSEO=5.85e-08 $X=4174 $Y=4557  $PIN_XY=4204,4554,4174,4557,4144,4554 $DEVICE_ID=1001
MM127 GND! 344 220 nmos  W=2.1e-08 L=1.5e-08 NFIN=2 ADEO=2.835e-16 ASEO=5.67e-16 PDEO=5.85e-08
+	 PSEO=1.17e-07 $X=3838 $Y=7242  $PIN_XY=3868,7326,3838,7242,3808,7326 $DEVICE_ID=1001
MM128 BL<6> WL<7> 344 nmos  W=2.1e-08 L=1.5e-08 NFIN=2 ADEO=2.835e-16 ASEO=5.67e-16 PDEO=5.85e-08
+	 PSEO=1.17e-07 $X=3838 $Y=6693  $PIN_XY=3868,6696,3838,6693,3808,6696 $DEVICE_ID=1001
MM129 GND! 221 218 nmos  W=2.1e-08 L=1.5e-08 NFIN=2 ADEO=2.835e-16 ASEO=5.67e-16 PDEO=5.85e-08
+	 PSEO=1.17e-07 $X=3838 $Y=6318  $PIN_XY=3868,6402,3838,6318,3808,6402 $DEVICE_ID=1001
MM130 BL<6> WL<6> 221 nmos  W=2.1e-08 L=1.5e-08 NFIN=2 ADEO=2.835e-16 ASEO=5.67e-16 PDEO=5.85e-08
+	 PSEO=1.17e-07 $X=3838 $Y=5769  $PIN_XY=3868,5772,3838,5769,3808,5772 $DEVICE_ID=1001
MM131 GND! 219 208 nmos  W=2.1e-08 L=1.5e-08 NFIN=2 ADEO=2.835e-16 ASEO=5.67e-16 PDEO=5.85e-08
+	 PSEO=1.17e-07 $X=3838 $Y=5394  $PIN_XY=3868,5478,3838,5394,3808,5478 $DEVICE_ID=1001
MM132 BL<6> WL<5> 219 nmos  W=2.1e-08 L=1.5e-08 NFIN=2 ADEO=2.835e-16 ASEO=5.67e-16 PDEO=5.85e-08
+	 PSEO=1.17e-07 $X=3838 $Y=4845  $PIN_XY=3868,4848,3838,4845,3808,4848 $DEVICE_ID=1001
MM133 GND! 209 108 nmos  W=2.1e-08 L=1.5e-08 NFIN=2 ADEO=2.835e-16 ASEO=5.67e-16 PDEO=5.85e-08
+	 PSEO=1.17e-07 $X=3838 $Y=4470  $PIN_XY=3868,4554,3838,4470,3808,4554 $DEVICE_ID=1001
MM134 220 WL<7> BLB<6> nmos  W=2.1e-08 L=1.5e-08 NFIN=2 ADEO=5.67e-16 ASEO=2.835e-16 PDEO=1.17e-07
+	 PSEO=5.85e-08 $X=3670 $Y=7329  $PIN_XY=3700,7326,3670,7329,3640,7326 $DEVICE_ID=1001
MM135 344 220 GND! nmos  W=2.1e-08 L=1.5e-08 NFIN=2 ADEO=5.67e-16 ASEO=2.835e-16 PDEO=1.17e-07
+	 PSEO=5.85e-08 $X=3670 $Y=6780  $PIN_XY=3700,6696,3670,6780,3640,6696 $DEVICE_ID=1001
MM136 218 WL<6> BLB<6> nmos  W=2.1e-08 L=1.5e-08 NFIN=2 ADEO=5.67e-16 ASEO=2.835e-16 PDEO=1.17e-07
+	 PSEO=5.85e-08 $X=3670 $Y=6405  $PIN_XY=3700,6402,3670,6405,3640,6402 $DEVICE_ID=1001
MM137 221 218 GND! nmos  W=2.1e-08 L=1.5e-08 NFIN=2 ADEO=5.67e-16 ASEO=2.835e-16 PDEO=1.17e-07
+	 PSEO=5.85e-08 $X=3670 $Y=5856  $PIN_XY=3700,5772,3670,5856,3640,5772 $DEVICE_ID=1001
MM138 208 WL<5> BLB<6> nmos  W=2.1e-08 L=1.5e-08 NFIN=2 ADEO=5.67e-16 ASEO=2.835e-16 PDEO=1.17e-07
+	 PSEO=5.85e-08 $X=3670 $Y=5481  $PIN_XY=3700,5478,3670,5481,3640,5478 $DEVICE_ID=1001
MM139 219 208 GND! nmos  W=2.1e-08 L=1.5e-08 NFIN=2 ADEO=5.67e-16 ASEO=2.835e-16 PDEO=1.17e-07
+	 PSEO=5.85e-08 $X=3670 $Y=4932  $PIN_XY=3700,4848,3670,4932,3640,4848 $DEVICE_ID=1001
MM140 108 WL<4> BLB<6> nmos  W=2.1e-08 L=1.5e-08 NFIN=2 ADEO=5.67e-16 ASEO=2.835e-16 PDEO=1.17e-07
+	 PSEO=5.85e-08 $X=3670 $Y=4557  $PIN_XY=3700,4554,3670,4557,3640,4554 $DEVICE_ID=1001
MM141 GND! 338 204 nmos  W=2.1e-08 L=1.5e-08 NFIN=2 ADEO=2.835e-16 ASEO=5.67e-16 PDEO=5.85e-08
+	 PSEO=1.17e-07 $X=3334 $Y=7242  $PIN_XY=3364,7326,3334,7242,3304,7326 $DEVICE_ID=1001
MM142 BL<5> WL<7> 338 nmos  W=2.1e-08 L=1.5e-08 NFIN=2 ADEO=2.835e-16 ASEO=5.67e-16 PDEO=5.85e-08
+	 PSEO=1.17e-07 $X=3334 $Y=6693  $PIN_XY=3364,6696,3334,6693,3304,6696 $DEVICE_ID=1001
MM143 GND! 205 200 nmos  W=2.1e-08 L=1.5e-08 NFIN=2 ADEO=2.835e-16 ASEO=5.67e-16 PDEO=5.85e-08
+	 PSEO=1.17e-07 $X=3334 $Y=6318  $PIN_XY=3364,6402,3334,6318,3304,6402 $DEVICE_ID=1001
MM144 BL<5> WL<6> 205 nmos  W=2.1e-08 L=1.5e-08 NFIN=2 ADEO=2.835e-16 ASEO=5.67e-16 PDEO=5.85e-08
+	 PSEO=1.17e-07 $X=3334 $Y=5769  $PIN_XY=3364,5772,3334,5769,3304,5772 $DEVICE_ID=1001
MM145 GND! 201 192 nmos  W=2.1e-08 L=1.5e-08 NFIN=2 ADEO=2.835e-16 ASEO=5.67e-16 PDEO=5.85e-08
+	 PSEO=1.17e-07 $X=3334 $Y=5394  $PIN_XY=3364,5478,3334,5394,3304,5478 $DEVICE_ID=1001
MM146 BL<5> WL<5> 201 nmos  W=2.1e-08 L=1.5e-08 NFIN=2 ADEO=2.835e-16 ASEO=5.67e-16 PDEO=5.85e-08
+	 PSEO=1.17e-07 $X=3334 $Y=4845  $PIN_XY=3364,4848,3334,4845,3304,4848 $DEVICE_ID=1001
MM147 GND! 193 82 nmos  W=2.1e-08 L=1.5e-08 NFIN=2 ADEO=2.835e-16 ASEO=5.67e-16 PDEO=5.85e-08
+	 PSEO=1.17e-07 $X=3334 $Y=4470  $PIN_XY=3364,4554,3334,4470,3304,4554 $DEVICE_ID=1001
MM148 204 WL<7> BLB<5> nmos  W=2.1e-08 L=1.5e-08 NFIN=2 ADEO=5.67e-16 ASEO=2.835e-16 PDEO=1.17e-07
+	 PSEO=5.85e-08 $X=3166 $Y=7329  $PIN_XY=3196,7326,3166,7329,3136,7326 $DEVICE_ID=1001
MM149 338 204 GND! nmos  W=2.1e-08 L=1.5e-08 NFIN=2 ADEO=5.67e-16 ASEO=2.835e-16 PDEO=1.17e-07
+	 PSEO=5.85e-08 $X=3166 $Y=6780  $PIN_XY=3196,6696,3166,6780,3136,6696 $DEVICE_ID=1001
MM150 200 WL<6> BLB<5> nmos  W=2.1e-08 L=1.5e-08 NFIN=2 ADEO=5.67e-16 ASEO=2.835e-16 PDEO=1.17e-07
+	 PSEO=5.85e-08 $X=3166 $Y=6405  $PIN_XY=3196,6402,3166,6405,3136,6402 $DEVICE_ID=1001
MM151 205 200 GND! nmos  W=2.1e-08 L=1.5e-08 NFIN=2 ADEO=5.67e-16 ASEO=2.835e-16 PDEO=1.17e-07
+	 PSEO=5.85e-08 $X=3166 $Y=5856  $PIN_XY=3196,5772,3166,5856,3136,5772 $DEVICE_ID=1001
MM152 192 WL<5> BLB<5> nmos  W=2.1e-08 L=1.5e-08 NFIN=2 ADEO=5.67e-16 ASEO=2.835e-16 PDEO=1.17e-07
+	 PSEO=5.85e-08 $X=3166 $Y=5481  $PIN_XY=3196,5478,3166,5481,3136,5478 $DEVICE_ID=1001
MM153 201 192 GND! nmos  W=2.1e-08 L=1.5e-08 NFIN=2 ADEO=5.67e-16 ASEO=2.835e-16 PDEO=1.17e-07
+	 PSEO=5.85e-08 $X=3166 $Y=4932  $PIN_XY=3196,4848,3166,4932,3136,4848 $DEVICE_ID=1001
MM154 82 WL<4> BLB<5> nmos  W=2.1e-08 L=1.5e-08 NFIN=2 ADEO=5.67e-16 ASEO=2.835e-16 PDEO=1.17e-07
+	 PSEO=5.85e-08 $X=3166 $Y=4557  $PIN_XY=3196,4554,3166,4557,3136,4554 $DEVICE_ID=1001
MM155 GND! 341 206 nmos  W=2.1e-08 L=1.5e-08 NFIN=2 ADEO=2.835e-16 ASEO=5.67e-16 PDEO=5.85e-08
+	 PSEO=1.17e-07 $X=2830 $Y=7242  $PIN_XY=2860,7326,2830,7242,2800,7326 $DEVICE_ID=1001
MM156 BL<4> WL<7> 341 nmos  W=2.1e-08 L=1.5e-08 NFIN=2 ADEO=2.835e-16 ASEO=5.67e-16 PDEO=5.85e-08
+	 PSEO=1.17e-07 $X=2830 $Y=6693  $PIN_XY=2860,6696,2830,6693,2800,6696 $DEVICE_ID=1001
MM157 GND! 207 198 nmos  W=2.1e-08 L=1.5e-08 NFIN=2 ADEO=2.835e-16 ASEO=5.67e-16 PDEO=5.85e-08
+	 PSEO=1.17e-07 $X=2830 $Y=6318  $PIN_XY=2860,6402,2830,6318,2800,6402 $DEVICE_ID=1001