* PEX netlist file	Wed Apr 16 01:36:40 2025	3to8staticdecodernew
* icv_netlist Version RHEL64 W-2024.09-SP2.11100136 2024/12/03
*.UNIT=4000

* Hierarchy Level 2
.subckt nand 2 3 4 5 6 7 8 9 10 11 14
+	15
*.floating_nets 12 13
.ends nand
.subckt sram_filler 2 3 4 5 6 7
.ends sram_filler
.subckt nor 2 3 4 5 6 7 8 9 10 11 12
+	13
.ends nor
.subckt inv 2 3 4 5 6 8 9
*.floating_nets 7
.ends inv
.subckt invx4 2 3 4 5 6 7
.ends invx4

* Hierarchy Level 1
.subckt buffer_highdrive 2 3 4 5 6 7 8 9 10 11 12
XXE966F03F130 3 2 5 6 11 12 invx4 $T=-22 -2 0 0 $X=2 $Y=-2
XXE966F03F131 3 2 4 5 11 12 invx4 $T=818 -2 0 0 $X=842 $Y=-2
.ends buffer_highdrive

* Hierarchy Level 0

* Top of hierarchy  cell=3to8staticdecodernew
.subckt 3to8staticdecodernew VDD! GND! 4 5 6 7 8 9 10 11 12
+	A0 A1 15 16 WLREF A2 19 20 21 22 23
+	24 25 26 27 28 29 30 31 32 33 34
+	35 36
*.floating_nets 94 95 96 97 98 99 100 101 102 103
MM1 GND! 66 67 nmos  W=2.1e-08 L=1.5e-08 NFIN=2 ADEO=2.835e-16 ASEO=5.67e-16 PDEO=5.85e-08
+	 PSEO=1.17e-07 $X=3730 $Y=884  $PIN_XY=3760,800,3730,884,3700,800 $DEVICE_ID=1001
MM2 GND! 68 69 nmos  W=2.1e-08 L=1.5e-08 NFIN=2 ADEO=2.835e-16 ASEO=5.67e-16 PDEO=5.85e-08
+	 PSEO=1.17e-07 $X=3730 $Y=-40  $PIN_XY=3760,-124,3730,-40,3700,-124 $DEVICE_ID=1001
MM3 GND! 61 62 nmos  W=2.1e-08 L=1.5e-08 NFIN=2 ADEO=2.835e-16 ASEO=5.67e-16 PDEO=5.85e-08
+	 PSEO=1.17e-07 $X=3730 $Y=-964  $PIN_XY=3760,-1048,3730,-964,3700,-1048 $DEVICE_ID=1001
MM4 GND! 59 60 nmos  W=2.1e-08 L=1.5e-08 NFIN=2 ADEO=2.835e-16 ASEO=5.67e-16 PDEO=5.85e-08
+	 PSEO=1.17e-07 $X=3730 $Y=-1888  $PIN_XY=3760,-1972,3730,-1888,3700,-1972 $DEVICE_ID=1001
MM5 GND! 55 56 nmos  W=2.1e-08 L=1.5e-08 NFIN=2 ADEO=2.835e-16 ASEO=5.67e-16 PDEO=5.85e-08
+	 PSEO=1.17e-07 $X=3730 $Y=-2812  $PIN_XY=3760,-2896,3730,-2812,3700,-2896 $DEVICE_ID=1001
MM6 GND! 64 65 nmos  W=2.1e-08 L=1.5e-08 NFIN=2 ADEO=2.835e-16 ASEO=5.67e-16 PDEO=5.85e-08
+	 PSEO=1.17e-07 $X=3730 $Y=-3736  $PIN_XY=3760,-3820,3730,-3736,3700,-3820 $DEVICE_ID=1001
MM7 GND! 57 58 nmos  W=2.1e-08 L=1.5e-08 NFIN=2 ADEO=2.835e-16 ASEO=5.67e-16 PDEO=5.85e-08
+	 PSEO=1.17e-07 $X=3730 $Y=-4660  $PIN_XY=3760,-4744,3730,-4660,3700,-4744 $DEVICE_ID=1001
MM8 67 66 GND! nmos  W=2.1e-08 L=1.5e-08 NFIN=2 ADEO=5.67e-16 ASEO=2.835e-16 PDEO=1.17e-07
+	 PSEO=5.85e-08 $X=3562 $Y=884  $PIN_XY=3592,800,3562,884,3532,800 $DEVICE_ID=1001
MM9 69 68 GND! nmos  W=2.1e-08 L=1.5e-08 NFIN=2 ADEO=5.67e-16 ASEO=2.835e-16 PDEO=1.17e-07
+	 PSEO=5.85e-08 $X=3562 $Y=-40  $PIN_XY=3592,-124,3562,-40,3532,-124 $DEVICE_ID=1001
MM10 62 61 GND! nmos  W=2.1e-08 L=1.5e-08 NFIN=2 ADEO=5.67e-16 ASEO=2.835e-16 PDEO=1.17e-07
+	 PSEO=5.85e-08 $X=3562 $Y=-964  $PIN_XY=3592,-1048,3562,-964,3532,-1048 $DEVICE_ID=1001
MM11 60 59 GND! nmos  W=2.1e-08 L=1.5e-08 NFIN=2 ADEO=5.67e-16 ASEO=2.835e-16 PDEO=1.17e-07
+	 PSEO=5.85e-08 $X=3562 $Y=-1888  $PIN_XY=3592,-1972,3562,-1888,3532,-1972 $DEVICE_ID=1001
MM12 56 55 GND! nmos  W=2.1e-08 L=1.5e-08 NFIN=2 ADEO=5.67e-16 ASEO=2.835e-16 PDEO=1.17e-07
+	 PSEO=5.85e-08 $X=3562 $Y=-2812  $PIN_XY=3592,-2896,3562,-2812,3532,-2896 $DEVICE_ID=1001
MM13 65 64 GND! nmos  W=2.1e-08 L=1.5e-08 NFIN=2 ADEO=5.67e-16 ASEO=2.835e-16 PDEO=1.17e-07
+	 PSEO=5.85e-08 $X=3562 $Y=-3736  $PIN_XY=3592,-3820,3562,-3736,3532,-3820 $DEVICE_ID=1001
MM14 58 57 GND! nmos  W=2.1e-08 L=1.5e-08 NFIN=2 ADEO=5.67e-16 ASEO=2.835e-16 PDEO=1.17e-07
+	 PSEO=5.85e-08 $X=3562 $Y=-4660  $PIN_XY=3592,-4744,3562,-4660,3532,-4744 $DEVICE_ID=1001
MM15 GND! 36 11 nmos  W=2.1e-08 L=1.5e-08 NFIN=2 ADEO=2.835e-16 ASEO=5.67e-16 PDEO=5.85e-08
+	 PSEO=1.17e-07 $X=2890 $Y=1346  $PIN_XY=2920,1430,2890,1346,2860,1430 $DEVICE_ID=1001
MM16 GND! 11 66 nmos  W=2.1e-08 L=1.5e-08 NFIN=2 ADEO=2.835e-16 ASEO=5.67e-16 PDEO=5.85e-08
+	 PSEO=1.17e-07 $X=2890 $Y=884  $PIN_XY=2920,800,2890,884,2860,800 $DEVICE_ID=1001
MM17 GND! 35 10 nmos  W=2.1e-08 L=1.5e-08 NFIN=2 ADEO=2.835e-16 ASEO=5.67e-16 PDEO=5.85e-08
+	 PSEO=1.17e-07 $X=2890 $Y=422  $PIN_XY=2920,506,2890,422,2860,506 $DEVICE_ID=1001
MM18 GND! 10 68 nmos  W=2.1e-08 L=1.5e-08 NFIN=2 ADEO=2.835e-16 ASEO=5.67e-16 PDEO=5.85e-08
+	 PSEO=1.17e-07 $X=2890 $Y=-40  $PIN_XY=2920,-124,2890,-40,2860,-124 $DEVICE_ID=1001
MM19 GND! 34 9 nmos  W=2.1e-08 L=1.5e-08 NFIN=2 ADEO=2.835e-16 ASEO=5.67e-16 PDEO=5.85e-08
+	 PSEO=1.17e-07 $X=2890 $Y=-502  $PIN_XY=2920,-418,2890,-502,2860,-418 $DEVICE_ID=1001
MM20 GND! 9 61 nmos  W=2.1e-08 L=1.5e-08 NFIN=2 ADEO=2.835e-16 ASEO=5.67e-16 PDEO=5.85e-08
+	 PSEO=1.17e-07 $X=2890 $Y=-964  $PIN_XY=2920,-1048,2890,-964,2860,-1048 $DEVICE_ID=1001
MM21 GND! 33 8 nmos  W=2.1e-08 L=1.5e-08 NFIN=2 ADEO=2.835e-16 ASEO=5.67e-16 PDEO=5.85e-08
+	 PSEO=1.17e-07 $X=2890 $Y=-1426  $PIN_XY=2920,-1342,2890,-1426,2860,-1342 $DEVICE_ID=1001
MM22 GND! 8 59 nmos  W=2.1e-08 L=1.5e-08 NFIN=2 ADEO=2.835e-16 ASEO=5.67e-16 PDEO=5.85e-08
+	 PSEO=1.17e-07 $X=2890 $Y=-1888  $PIN_XY=2920,-1972,2890,-1888,2860,-1972 $DEVICE_ID=1001
MM23 GND! 27 7 nmos  W=2.1e-08 L=1.5e-08 NFIN=2 ADEO=2.835e-16 ASEO=5.67e-16 PDEO=5.85e-08
+	 PSEO=1.17e-07 $X=2890 $Y=-2350  $PIN_XY=2920,-2266,2890,-2350,2860,-2266 $DEVICE_ID=1001
MM24 GND! 7 55 nmos  W=2.1e-08 L=1.5e-08 NFIN=2 ADEO=2.835e-16 ASEO=5.67e-16 PDEO=5.85e-08
+	 PSEO=1.17e-07 $X=2890 $Y=-2812  $PIN_XY=2920,-2896,2890,-2812,2860,-2896 $DEVICE_ID=1001
MM25 GND! 26 6 nmos  W=2.1e-08 L=1.5e-08 NFIN=2 ADEO=2.835e-16 ASEO=5.67e-16 PDEO=5.85e-08
+	 PSEO=1.17e-07 $X=2890 $Y=-3274  $PIN_XY=2920,-3190,2890,-3274,2860,-3190 $DEVICE_ID=1001
MM26 GND! 6 64 nmos  W=2.1e-08 L=1.5e-08 NFIN=2 ADEO=2.835e-16 ASEO=5.67e-16 PDEO=5.85e-08
+	 PSEO=1.17e-07 $X=2890 $Y=-3736  $PIN_XY=2920,-3820,2890,-3736,2860,-3820 $DEVICE_ID=1001
MM27 GND! 25 5 nmos  W=2.1e-08 L=1.5e-08 NFIN=2 ADEO=2.835e-16 ASEO=5.67e-16 PDEO=5.85e-08
+	 PSEO=1.17e-07 $X=2890 $Y=-4198  $PIN_XY=2920,-4114,2890,-4198,2860,-4114 $DEVICE_ID=1001
MM28 11 32 GND! nmos  W=2.1e-08 L=1.5e-08 NFIN=2 ADEO=5.67e-16 ASEO=2.835e-16 PDEO=1.17e-07
+	 PSEO=5.85e-08 $X=2722 $Y=1346  $PIN_XY=2752,1430,2722,1346,2692,1430 $DEVICE_ID=1001
MM29 66 11 GND! nmos  W=2.1e-08 L=1.5e-08 NFIN=2 ADEO=5.67e-16 ASEO=2.835e-16 PDEO=1.17e-07
+	 PSEO=5.85e-08 $X=2722 $Y=884  $PIN_XY=2752,800,2722,884,2692,800 $DEVICE_ID=1001
MM30 10 31 GND! nmos  W=2.1e-08 L=1.5e-08 NFIN=2 ADEO=5.67e-16 ASEO=2.835e-16 PDEO=1.17e-07
+	 PSEO=5.85e-08 $X=2722 $Y=422  $PIN_XY=2752,506,2722,422,2692,506 $DEVICE_ID=1001
MM31 68 10 GND! nmos  W=2.1e-08 L=1.5e-08 NFIN=2 ADEO=5.67e-16 ASEO=2.835e-16 PDEO=1.17e-07
+	 PSEO=5.85e-08 $X=2722 $Y=-40  $PIN_XY=2752,-124,2722,-40,2692,-124 $DEVICE_ID=1001
MM32 9 30 GND! nmos  W=2.1e-08 L=1.5e-08 NFIN=2 ADEO=5.67e-16 ASEO=2.835e-16 PDEO=1.17e-07
+	 PSEO=5.85e-08 $X=2722 $Y=-502  $PIN_XY=2752,-418,2722,-502,2692,-418 $DEVICE_ID=1001
MM33 61 9 GND! nmos  W=2.1e-08 L=1.5e-08 NFIN=2 ADEO=5.67e-16 ASEO=2.835e-16 PDEO=1.17e-07
+	 PSEO=5.85e-08 $X=2722 $Y=-964  $PIN_XY=2752,-1048,2722,-964,2692,-1048 $DEVICE_ID=1001
MM34 8 29 GND! nmos  W=2.1e-08 L=1.5e-08 NFIN=2 ADEO=5.67e-16 ASEO=2.835e-16 PDEO=1.17e-07
+	 PSEO=5.85e-08 $X=2722 $Y=-1426  $PIN_XY=2752,-1342,2722,-1426,2692,-1342 $DEVICE_ID=1001
MM35 59 8 GND! nmos  W=2.1e-08 L=1.5e-08 NFIN=2 ADEO=5.67e-16 ASEO=2.835e-16 PDEO=1.17e-07
+	 PSEO=5.85e-08 $X=2722 $Y=-1888  $PIN_XY=2752,-1972,2722,-1888,2692,-1972 $DEVICE_ID=1001
MM36 7 23 GND! nmos  W=2.1e-08 L=1.5e-08 NFIN=2 ADEO=5.67e-16 ASEO=2.835e-16 PDEO=1.17e-07
+	 PSEO=5.85e-08 $X=2722 $Y=-2350  $PIN_XY=2752,-2266,2722,-2350,2692,-2266 $DEVICE_ID=1001
MM37 55 7 GND! nmos  W=2.1e-08 L=1.5e-08 NFIN=2 ADEO=5.67e-16 ASEO=2.835e-16 PDEO=1.17e-07
+	 PSEO=5.85e-08 $X=2722 $Y=-2812  $PIN_XY=2752,-2896,2722,-2812,2692,-2896 $DEVICE_ID=1001
MM38 6 22 GND! nmos  W=2.1e-08 L=1.5e-08 NFIN=2 ADEO=5.67e-16 ASEO=2.835e-16 PDEO=1.17e-07
+	 PSEO=5.85e-08 $X=2722 $Y=-3274  $PIN_XY=2752,-3190,2722,-3274,2692,-3190 $DEVICE_ID=1001
MM39 64 6 GND! nmos  W=2.1e-08 L=1.5e-08 NFIN=2 ADEO=5.67e-16 ASEO=2.835e-16 PDEO=1.17e-07
+	 PSEO=5.85e-08 $X=2722 $Y=-3736  $PIN_XY=2752,-3820,2722,-3736,2692,-3820 $DEVICE_ID=1001
MM40 5 21 GND! nmos  W=2.1e-08 L=1.5e-08 NFIN=2 ADEO=5.67e-16 ASEO=2.835e-16 PDEO=1.17e-07
+	 PSEO=5.85e-08 $X=2722 $Y=-4198  $PIN_XY=2752,-4114,2722,-4198,2692,-4114 $DEVICE_ID=1001
MM41 36 19 84 nmos  W=2.1e-08 L=1.5e-08 NFIN=2 ADEO=2.835e-16 ASEO=5.67e-16 PDEO=5.85e-08
+	 PSEO=1.17e-07 $X=2218 $Y=1346  $PIN_XY=2248,1430,2218,1346,2188,1430 $DEVICE_ID=1001
MM42 32 12 85 nmos  W=2.1e-08 L=1.5e-08 NFIN=2 ADEO=2.835e-16 ASEO=5.67e-16 PDEO=5.85e-08
+	 PSEO=1.17e-07 $X=2218 $Y=884  $PIN_XY=2248,800,2218,884,2188,800 $DEVICE_ID=1001
MM43 35 19 83 nmos  W=2.1e-08 L=1.5e-08 NFIN=2 ADEO=2.835e-16 ASEO=5.67e-16 PDEO=5.85e-08
+	 PSEO=1.17e-07 $X=2218 $Y=422  $PIN_XY=2248,506,2218,422,2188,506 $DEVICE_ID=1001
MM44 31 12 78 nmos  W=2.1e-08 L=1.5e-08 NFIN=2 ADEO=2.835e-16 ASEO=5.67e-16 PDEO=5.85e-08
+	 PSEO=1.17e-07 $X=2218 $Y=-40  $PIN_XY=2248,-124,2218,-40,2188,-124 $DEVICE_ID=1001
MM45 34 A1 81 nmos  W=2.1e-08 L=1.5e-08 NFIN=2 ADEO=2.835e-16 ASEO=5.67e-16 PDEO=5.85e-08
+	 PSEO=1.17e-07 $X=2218 $Y=-502  $PIN_XY=2248,-418,2218,-502,2188,-418 $DEVICE_ID=1001
MM46 30 12 82 nmos  W=2.1e-08 L=1.5e-08 NFIN=2 ADEO=2.835e-16 ASEO=5.67e-16 PDEO=5.85e-08
+	 PSEO=1.17e-07 $X=2218 $Y=-964  $PIN_XY=2248,-1048,2218,-964,2188,-1048 $DEVICE_ID=1001
MM47 33 A1 80 nmos  W=2.1e-08 L=1.5e-08 NFIN=2 ADEO=2.835e-16 ASEO=5.67e-16 PDEO=5.85e-08
+	 PSEO=1.17e-07 $X=2218 $Y=-1426  $PIN_XY=2248,-1342,2218,-1426,2188,-1342 $DEVICE_ID=1001
MM48 29 12 79 nmos  W=2.1e-08 L=1.5e-08 NFIN=2 ADEO=2.835e-16 ASEO=5.67e-16 PDEO=5.85e-08
+	 PSEO=1.17e-07 $X=2218 $Y=-1888  $PIN_XY=2248,-1972,2218,-1888,2188,-1972 $DEVICE_ID=1001
MM49 27 19 71 nmos  W=2.1e-08 L=1.5e-08 NFIN=2 ADEO=2.835e-16 ASEO=5.67e-16 PDEO=5.85e-08
+	 PSEO=1.17e-07 $X=2218 $Y=-2350  $PIN_XY=2248,-2266,2218,-2350,2188,-2266 $DEVICE_ID=1001
MM50 23 12 70 nmos  W=2.1e-08 L=1.5e-08 NFIN=2 ADEO=2.835e-16 ASEO=5.67e-16 PDEO=5.85e-08
+	 PSEO=1.17e-07 $X=2218 $Y=-2812  $PIN_XY=2248,-2896,2218,-2812,2188,-2896 $DEVICE_ID=1001
MM51 26 19 72 nmos  W=2.1e-08 L=1.5e-08 NFIN=2 ADEO=2.835e-16 ASEO=5.67e-16 PDEO=5.85e-08
+	 PSEO=1.17e-07 $X=2218 $Y=-3274  $PIN_XY=2248,-3190,2218,-3274,2188,-3190 $DEVICE_ID=1001
MM52 22 12 73 nmos  W=2.1e-08 L=1.5e-08 NFIN=2 ADEO=2.835e-16 ASEO=5.67e-16 PDEO=5.85e-08
+	 PSEO=1.17e-07 $X=2218 $Y=-3736  $PIN_XY=2248,-3820,2218,-3736,2188,-3820 $DEVICE_ID=1001
MM53 25 A1 76 nmos  W=2.1e-08 L=1.5e-08 NFIN=2 ADEO=2.835e-16 ASEO=5.67e-16 PDEO=5.85e-08
+	 PSEO=1.17e-07 $X=2218 $Y=-4198  $PIN_XY=2248,-4114,2218,-4198,2188,-4114 $DEVICE_ID=1001
MM54 84 15 GND! nmos  W=2.1e-08 L=1.5e-08 NFIN=2 ADEO=5.67e-16 ASEO=2.835e-16 PDEO=1.17e-07
+	 PSEO=5.85e-08 $X=2050 $Y=1346  $PIN_XY=2080,1430,2050,1346,2020,1430 $DEVICE_ID=1001
MM55 85 28 GND! nmos  W=2.1e-08 L=1.5e-08 NFIN=2 ADEO=5.67e-16 ASEO=2.835e-16 PDEO=1.17e-07
+	 PSEO=5.85e-08 $X=2050 $Y=884  $PIN_XY=2080,800,2050,884,2020,800 $DEVICE_ID=1001
MM56 83 A0 GND! nmos  W=2.1e-08 L=1.5e-08 NFIN=2 ADEO=5.67e-16 ASEO=2.835e-16 PDEO=1.17e-07
+	 PSEO=5.85e-08 $X=2050 $Y=422  $PIN_XY=2080,506,2050,422,2020,506 $DEVICE_ID=1001
MM57 78 28 GND! nmos  W=2.1e-08 L=1.5e-08 NFIN=2 ADEO=5.67e-16 ASEO=2.835e-16 PDEO=1.17e-07
+	 PSEO=5.85e-08 $X=2050 $Y=-40  $PIN_XY=2080,-124,2050,-40,2020,-124 $DEVICE_ID=1001
MM58 81 15 GND! nmos  W=2.1e-08 L=1.5e-08 NFIN=2 ADEO=5.67e-16 ASEO=2.835e-16 PDEO=1.17e-07
+	 PSEO=5.85e-08 $X=2050 $Y=-502  $PIN_XY=2080,-418,2050,-502,2020,-418 $DEVICE_ID=1001
MM59 82 28 GND! nmos  W=2.1e-08 L=1.5e-08 NFIN=2 ADEO=5.67e-16 ASEO=2.835e-16 PDEO=1.17e-07
+	 PSEO=5.85e-08 $X=2050 $Y=-964  $PIN_XY=2080,-1048,2050,-964,2020,-1048 $DEVICE_ID=1001
MM60 80 A0 GND! nmos  W=2.1e-08 L=1.5e-08 NFIN=2 ADEO=5.67e-16 ASEO=2.835e-16 PDEO=1.17e-07
+	 PSEO=5.85e-08 $X=2050 $Y=-1426  $PIN_XY=2080,-1342,2050,-1426,2020,-1342 $DEVICE_ID=1001
MM61 79 28 GND! nmos  W=2.1e-08 L=1.5e-08 NFIN=2 ADEO=5.67e-16 ASEO=2.835e-16 PDEO=1.17e-07
+	 PSEO=5.85e-08 $X=2050 $Y=-1888  $PIN_XY=2080,-1972,2050,-1888,2020,-1972 $DEVICE_ID=1001
MM62 71 15 GND! nmos  W=2.1e-08 L=1.5e-08 NFIN=2 ADEO=5.67e-16 ASEO=2.835e-16 PDEO=1.17e-07
+	 PSEO=5.85e-08 $X=2050 $Y=-2350  $PIN_XY=2080,-2266,2050,-2350,2020,-2266 $DEVICE_ID=1001
MM63 70 A2 GND! nmos  W=2.1e-08 L=1.5e-08 NFIN=2 ADEO=5.67e-16 ASEO=2.835e-16 PDEO=1.17e-07
+	 PSEO=5.85e-08 $X=2050 $Y=-2812  $PIN_XY=2080,-2896,2050,-2812,2020,-2896 $DEVICE_ID=1001
MM64 72 A2 GND! nmos  W=2.1e-08 L=1.5e-08 NFIN=2 ADEO=5.67e-16 ASEO=2.835e-16 PDEO=1.17e-07
+	 PSEO=5.85e-08 $X=2050 $Y=-3274  $PIN_XY=2080,-3190,2050,-3274,2020,-3190 $DEVICE_ID=1001
MM65 73 A0 GND! nmos  W=2.1e-08 L=1.5e-08 NFIN=2 ADEO=5.67e-16 ASEO=2.835e-16 PDEO=1.17e-07
+	 PSEO=5.85e-08 $X=2050 $Y=-3736  $PIN_XY=2080,-3820,2050,-3736,2020,-3820 $DEVICE_ID=1001
MM66 76 15 GND! nmos  W=2.1e-08 L=1.5e-08 NFIN=2 ADEO=5.67e-16 ASEO=2.835e-16 PDEO=1.17e-07
+	 PSEO=5.85e-08 $X=2050 $Y=-4198  $PIN_XY=2080,-4114,2050,-4198,2020,-4114 $DEVICE_ID=1001
MM67 15 A0 GND! nmos  W=2.1e-08 L=1.5e-08 NFIN=2 ADEO=2.835e-16 ASEO=2.835e-16 PDEO=5.85e-08
+	 PSEO=5.85e-08 $X=1546 $Y=1346  $PIN_XY=1576,1430,1546,1346,1516,1430 $DEVICE_ID=1001
MM68 19 A1 GND! nmos  W=2.1e-08 L=1.5e-08 NFIN=2 ADEO=2.835e-16 ASEO=2.835e-16 PDEO=5.85e-08
+	 PSEO=5.85e-08 $X=1546 $Y=884  $PIN_XY=1576,800,1546,884,1516,800 $DEVICE_ID=1001
MM69 28 A2 GND! nmos  W=2.1e-08 L=1.5e-08 NFIN=2 ADEO=2.835e-16 ASEO=2.835e-16 PDEO=5.85e-08
+	 PSEO=5.85e-08 $X=1546 $Y=443  $PIN_XY=1576,506,1546,443,1516,506 $DEVICE_ID=1001
MM70 GND! 37 63 nmos  W=2.1e-08 L=1.5e-08 NFIN=2 ADEO=2.835e-16 ASEO=5.67e-16 PDEO=5.85e-08
+	 PSEO=1.17e-07 $X=3730 $Y=-5605  $PIN_XY=3760,-5668,3730,-5605,3700,-5668 $DEVICE_ID=1001
MM71 63 37 GND! nmos  W=2.1e-08 L=1.5e-08 NFIN=2 ADEO=5.67e-16 ASEO=2.835e-16 PDEO=1.17e-07
+	 PSEO=5.85e-08 $X=3562 $Y=-5605  $PIN_XY=3592,-5668,3562,-5605,3532,-5668 $DEVICE_ID=1001
MM72 GND! 5 57 nmos  W=2.1e-08 L=1.5e-08 NFIN=2 ADEO=2.835e-16 ASEO=5.67e-16 PDEO=5.85e-08
+	 PSEO=1.17e-07 $X=2890 $Y=-4660  $PIN_XY=2920,-4744,2890,-4660,2860,-4744 $DEVICE_ID=1001
MM73 GND! 24 4 nmos  W=2.1e-08 L=1.5e-08 NFIN=2 ADEO=2.835e-16 ASEO=5.67e-16 PDEO=5.85e-08
+	 PSEO=1.17e-07 $X=2890 $Y=-5122  $PIN_XY=2920,-5038,2890,-5122,2860,-5038 $DEVICE_ID=1001
MM74 GND! 4 37 nmos  W=2.1e-08 L=1.5e-08 NFIN=2 ADEO=2.835e-16 ASEO=5.67e-16 PDEO=5.85e-08
+	 PSEO=1.17e-07 $X=2890 $Y=-5584  $PIN_XY=2920,-5668,2890,-5584,2860,-5668 $DEVICE_ID=1001
MM75 57 5 GND! nmos  W=2.1e-08 L=1.5e-08 NFIN=2 ADEO=5.67e-16 ASEO=2.835e-16 PDEO=1.17e-07
+	 PSEO=5.85e-08 $X=2722 $Y=-4660  $PIN_XY=2752,-4744,2722,-4660,2692,-4744 $DEVICE_ID=1001
MM76 4 20 GND! nmos  W=2.1e-08 L=1.5e-08 NFIN=2 ADEO=5.67e-16 ASEO=2.835e-16 PDEO=1.17e-07
+	 PSEO=5.85e-08 $X=2722 $Y=-5122  $PIN_XY=2752,-5038,2722,-5122,2692,-5038 $DEVICE_ID=1001
MM77 37 4 GND! nmos  W=2.1e-08 L=1.5e-08 NFIN=2 ADEO=5.67e-16 ASEO=2.835e-16 PDEO=1.17e-07
+	 PSEO=5.85e-08 $X=2722 $Y=-5584  $PIN_XY=2752,-5668,2722,-5584,2692,-5668 $DEVICE_ID=1001
MM78 21 12 75 nmos  W=2.1e-08 L=1.5e-08 NFIN=2 ADEO=2.835e-16 ASEO=5.67e-16 PDEO=5.85e-08
+	 PSEO=1.17e-07 $X=2218 $Y=-4660  $PIN_XY=2248,-4744,2218,-4660,2188,-4744 $DEVICE_ID=1001
MM79 24 A1 77 nmos  W=2.1e-08 L=1.5e-08 NFIN=2 ADEO=2.835e-16 ASEO=5.67e-16 PDEO=5.85e-08
+	 PSEO=1.17e-07 $X=2218 $Y=-5122  $PIN_XY=2248,-5038,2218,-5122,2188,-5038 $DEVICE_ID=1001
MM80 20 12 74 nmos  W=2.1e-08 L=1.5e-08 NFIN=2 ADEO=2.835e-16 ASEO=5.67e-16 PDEO=5.85e-08
+	 PSEO=1.17e-07 $X=2218 $Y=-5584  $PIN_XY=2248,-5668,2218,-5584,2188,-5668 $DEVICE_ID=1001
MM81 75 A2 GND! nmos  W=2.1e-08 L=1.5e-08 NFIN=2 ADEO=5.67e-16 ASEO=2.835e-16 PDEO=1.17e-07
+	 PSEO=5.85e-08 $X=2050 $Y=-4660  $PIN_XY=2080,-4744,2050,-4660,2020,-4744 $DEVICE_ID=1001
MM82 77 A2 GND! nmos  W=2.1e-08 L=1.5e-08 NFIN=2 ADEO=5.67e-16 ASEO=2.835e-16 PDEO=1.17e-07
+	 PSEO=5.85e-08 $X=2050 $Y=-5122  $PIN_XY=2080,-5038,2050,-5122,2020,-5038 $DEVICE_ID=1001
MM83 74 A0 GND! nmos  W=2.1e-08 L=1.5e-08 NFIN=2 ADEO=5.67e-16 ASEO=2.835e-16 PDEO=1.17e-07
+	 PSEO=5.85e-08 $X=2050 $Y=-5584  $PIN_XY=2080,-5668,2050,-5584,2020,-5668 $DEVICE_ID=1001
MM84 GND! WLREF 16 nmos  W=2.1e-08 L=1.5e-08 NFIN=2 ADEO=2.835e-16 ASEO=5.67e-16 PDEO=5.85e-08
+	 PSEO=1.17e-07 $X=1042 $Y=-4681  $PIN_XY=1072,-4744,1042,-4681,1012,-4744 $DEVICE_ID=1001
MM85 GND! 16 12 nmos  W=2.1e-08 L=1.5e-08 NFIN=2 ADEO=2.835e-16 ASEO=5.67e-16 PDEO=5.85e-08
+	 PSEO=1.17e-07 $X=1042 $Y=-5101  $PIN_XY=1072,-5038,1042,-5101,1012,-5038 $DEVICE_ID=1001
MM86 16 WLREF GND! nmos  W=2.1e-08 L=1.5e-08 NFIN=2 ADEO=5.67e-16 ASEO=2.835e-16 PDEO=1.17e-07
+	 PSEO=5.85e-08 $X=874 $Y=-4681  $PIN_XY=904,-4744,874,-4681,844,-4744 $DEVICE_ID=1001
MM87 12 16 GND! nmos  W=2.1e-08 L=1.5e-08 NFIN=2 ADEO=5.67e-16 ASEO=2.835e-16 PDEO=1.17e-07
+	 PSEO=5.85e-08 $X=874 $Y=-5101  $PIN_XY=904,-5038,874,-5101,844,-5038 $DEVICE_ID=1001
MM88 VDD! 66 67 pmos  W=2.1e-08 L=1.5e-08 NFIN=2 ADEO=2.835e-16 ASEO=5.67e-16 PDEO=5.85e-08
+	 PSEO=1.17e-07 $X=4066 $Y=964  $PIN_XY=4096,970,4066,964,4036,970 $DEVICE_ID=1003
MM89 VDD! 68 69 pmos  W=2.1e-08 L=1.5e-08 NFIN=2 ADEO=2.835e-16 ASEO=5.67e-16 PDEO=5.85e-08
+	 PSEO=1.17e-07 $X=4066 $Y=40  $PIN_XY=4096,46,4066,40,4036,46 $DEVICE_ID=1003
MM90 VDD! 61 62 pmos  W=2.1e-08 L=1.5e-08 NFIN=2 ADEO=2.835e-16 ASEO=5.67e-16 PDEO=5.85e-08
+	 PSEO=1.17e-07 $X=4066 $Y=-884  $PIN_XY=4096,-878,4066,-884,4036,-878 $DEVICE_ID=1003
MM91 VDD! 59 60 pmos  W=2.1e-08 L=1.5e-08 NFIN=2 ADEO=2.835e-16 ASEO=5.67e-16 PDEO=5.85e-08
+	 PSEO=1.17e-07 $X=4066 $Y=-1808  $PIN_XY=4096,-1802,4066,-1808,4036,-1802 $DEVICE_ID=1003
MM92 VDD! 55 56 pmos  W=2.1e-08 L=1.5e-08 NFIN=2 ADEO=2.835e-16 ASEO=5.67e-16 PDEO=5.85e-08
+	 PSEO=1.17e-07 $X=4066 $Y=-2732  $PIN_XY=4096,-2726,4066,-2732,4036,-2726 $DEVICE_ID=1003
MM93 VDD! 64 65 pmos  W=2.1e-08 L=1.5e-08 NFIN=2 ADEO=2.835e-16 ASEO=5.67e-16 PDEO=5.85e-08
+	 PSEO=1.17e-07 $X=4066 $Y=-3656  $PIN_XY=4096,-3650,4066,-3656,4036,-3650 $DEVICE_ID=1003
MM94 VDD! 57 58 pmos  W=2.1e-08 L=1.5e-08 NFIN=2 ADEO=2.835e-16 ASEO=5.67e-16 PDEO=5.85e-08
+	 PSEO=1.17e-07 $X=4066 $Y=-4580  $PIN_XY=4096,-4574,4066,-4580,4036,-4574 $DEVICE_ID=1003
MM95 67 66 VDD! pmos  W=2.1e-08 L=1.5e-08 NFIN=2 ADEO=5.67e-16 ASEO=5.67e-16 PDEO=1.17e-07
+	 PSEO=1.17e-07 $X=3898 $Y=964  $PIN_XY=3928,970,3898,964,3868,970 $DEVICE_ID=1003
MM96 69 68 VDD! pmos  W=2.1e-08 L=1.5e-08 NFIN=2 ADEO=5.67e-16 ASEO=5.67e-16 PDEO=1.17e-07
+	 PSEO=1.17e-07 $X=3898 $Y=40  $PIN_XY=3928,46,3898,40,3868,46 $DEVICE_ID=1003
MM97 62 61 VDD! pmos  W=2.1e-08 L=1.5e-08 NFIN=2 ADEO=5.67e-16 ASEO=5.67e-16 PDEO=1.17e-07
+	 PSEO=1.17e-07 $X=3898 $Y=-884  $PIN_XY=3928,-878,3898,-884,3868,-878 $DEVICE_ID=1003
MM98 60 59 VDD! pmos  W=2.1e-08 L=1.5e-08 NFIN=2 ADEO=5.67e-16 ASEO=5.67e-16 PDEO=1.17e-07
+	 PSEO=1.17e-07 $X=3898 $Y=-1808  $PIN_XY=3928,-1802,3898,-1808,3868,-1802 $DEVICE_ID=1003
MM99 56 55 VDD! pmos  W=2.1e-08 L=1.5e-08 NFIN=2 ADEO=5.67e-16 ASEO=5.67e-16 PDEO=1.17e-07
+	 PSEO=1.17e-07 $X=3898 $Y=-2732  $PIN_XY=3928,-2726,3898,-2732,3868,-2726 $DEVICE_ID=1003
MM100 65 64 VDD! pmos  W=2.1e-08 L=1.5e-08 NFIN=2 ADEO=5.67e-16 ASEO=5.67e-16 PDEO=1.17e-07
+	 PSEO=1.17e-07 $X=3898 $Y=-3656  $PIN_XY=3928,-3650,3898,-3656,3868,-3650 $DEVICE_ID=1003
MM101 58 57 VDD! pmos  W=2.1e-08 L=1.5e-08 NFIN=2 ADEO=5.67e-16 ASEO=5.67e-16 PDEO=1.17e-07
+	 PSEO=1.17e-07 $X=3898 $Y=-4580  $PIN_XY=3928,-4574,3898,-4580,3868,-4574 $DEVICE_ID=1003
MM102 VDD! 66 67 pmos  W=2.1e-08 L=1.5e-08 NFIN=2 ADEO=5.67e-16 ASEO=5.67e-16 PDEO=1.17e-07
+	 PSEO=1.17e-07 $X=3730 $Y=884  $PIN_XY=3760,970,3730,884,3700,970 $DEVICE_ID=1003
MM103 VDD! 68 69 pmos  W=2.1e-08 L=1.5e-08 NFIN=2 ADEO=5.67e-16 ASEO=5.67e-16 PDEO=1.17e-07
+	 PSEO=1.17e-07 $X=3730 $Y=-40  $PIN_XY=3760,46,3730,-40,3700,46 $DEVICE_ID=1003
MM104 VDD! 61 62 pmos  W=2.1e-08 L=1.5e-08 NFIN=2 ADEO=5.67e-16 ASEO=5.67e-16 PDEO=1.17e-07
+	 PSEO=1.17e-07 $X=3730 $Y=-964  $PIN_XY=3760,-878,3730,-964,3700,-878 $DEVICE_ID=1003
MM105 VDD! 59 60 pmos  W=2.1e-08 L=1.5e-08 NFIN=2 ADEO=5.67e-16 ASEO=5.67e-16 PDEO=1.17e-07
+	 PSEO=1.17e-07 $X=3730 $Y=-1888  $PIN_XY=3760,-1802,3730,-1888,3700,-1802 $DEVICE_ID=1003
MM106 VDD! 55 56 pmos  W=2.1e-08 L=1.5e-08 NFIN=2 ADEO=5.67e-16 ASEO=5.67e-16 PDEO=1.17e-07
+	 PSEO=1.17e-07 $X=3730 $Y=-2812  $PIN_XY=3760,-2726,3730,-2812,3700,-2726 $DEVICE_ID=1003
MM107 VDD! 64 65 pmos  W=2.1e-08 L=1.5e-08 NFIN=2 ADEO=5.67e-16 ASEO=5.67e-16 PDEO=1.17e-07
+	 PSEO=1.17e-07 $X=3730 $Y=-3736  $PIN_XY=3760,-3650,3730,-3736,3700,-3650 $DEVICE_ID=1003
MM108 VDD! 57 58 pmos  W=2.1e-08 L=1.5e-08 NFIN=2 ADEO=5.67e-16 ASEO=5.67e-16 PDEO=1.17e-07
+	 PSEO=1.17e-07 $X=3730 $Y=-4660  $PIN_XY=3760,-4574,3730,-4660,3700,-4574 $DEVICE_ID=1003
MM109 67 66 VDD! pmos  W=2.1e-08 L=1.5e-08 NFIN=2 ADEO=5.67e-16 ASEO=2.835e-16 PDEO=1.17e-07
+	 PSEO=5.85e-08 $X=3562 $Y=884  $PIN_XY=3592,970,3562,884,3532,970 $DEVICE_ID=1003
MM110 69 68 VDD! pmos  W=2.1e-08 L=1.5e-08 NFIN=2 ADEO=5.67e-16 ASEO=2.835e-16 PDEO=1.17e-07
+	 PSEO=5.85e-08 $X=3562 $Y=-40  $PIN_XY=3592,46,3562,-40,3532,46 $DEVICE_ID=1003
MM111 62 61 VDD! pmos  W=2.1e-08 L=1.5e-08 NFIN=2 ADEO=5.67e-16 ASEO=2.835e-16 PDEO=1.17e-07
+	 PSEO=5.85e-08 $X=3562 $Y=-964  $PIN_XY=3592,-878,3562,-964,3532,-878 $DEVICE_ID=1003
MM112 60 59 VDD! pmos  W=2.1e-08 L=1.5e-08 NFIN=2 ADEO=5.67e-16 ASEO=2.835e-16 PDEO=1.17e-07
+	 PSEO=5.85e-08 $X=3562 $Y=-1888  $PIN_XY=3592,-1802,3562,-1888,3532,-1802 $DEVICE_ID=1003
MM113 56 55 VDD! pmos  W=2.1e-08 L=1.5e-08 NFIN=2 ADEO=5.67e-16 ASEO=2.835e-16 PDEO=1.17e-07
+	 PSEO=5.85e-08 $X=3562 $Y=-2812  $PIN_XY=3592,-2726,3562,-2812,3532,-2726 $DEVICE_ID=1003
MM114 65 64 VDD! pmos  W=2.1e-08 L=1.5e-08 NFIN=2 ADEO=5.67e-16 ASEO=2.835e-16 PDEO=1.17e-07
+	 PSEO=5.85e-08 $X=3562 $Y=-3736  $PIN_XY=3592,-3650,3562,-3736,3532,-3650 $DEVICE_ID=1003
MM115 58 57 VDD! pmos  W=2.1e-08 L=1.5e-08 NFIN=2 ADEO=5.67e-16 ASEO=2.835e-16 PDEO=1.17e-07
+	 PSEO=5.85e-08 $X=3562 $Y=-4660  $PIN_XY=3592,-4574,3562,-4660,3532,-4574 $DEVICE_ID=1003
MM116 VDD! 11 66 pmos  W=2.1e-08 L=1.5e-08 NFIN=2 ADEO=2.835e-16 ASEO=5.67e-16 PDEO=5.85e-08
+	 PSEO=1.17e-07 $X=3226 $Y=964  $PIN_XY=3256,970,3226,964,3196,970 $DEVICE_ID=1003
MM117 VDD! 10 68 pmos  W=2.1e-08 L=1.5e-08 NFIN=2 ADEO=2.835e-16 ASEO=5.67e-16 PDEO=5.85e-08
+	 PSEO=1.17e-07 $X=3226 $Y=40  $PIN_XY=3256,46,3226,40,3196,46 $DEVICE_ID=1003
MM118 VDD! 9 61 pmos  W=2.1e-08 L=1.5e-08 NFIN=2 ADEO=2.835e-16 ASEO=5.67e-16 PDEO=5.85e-08
+	 PSEO=1.17e-07 $X=3226 $Y=-884  $PIN_XY=3256,-878,3226,-884,3196,-878 $DEVICE_ID=1003
MM119 VDD! 8 59 pmos  W=2.1e-08 L=1.5e-08 NFIN=2 ADEO=2.835e-16 ASEO=5.67e-16 PDEO=5.85e-08
+	 PSEO=1.17e-07 $X=3226 $Y=-1808  $PIN_XY=3256,-1802,3226,-1808,3196,-1802 $DEVICE_ID=1003
MM120 VDD! 7 55 pmos  W=2.1e-08 L=1.5e-08 NFIN=2 ADEO=2.835e-16 ASEO=5.67e-16 PDEO=5.85e-08
+	 PSEO=1.17e-07 $X=3226 $Y=-2732  $PIN_XY=3256,-2726,3226,-2732,3196,-2726 $DEVICE_ID=1003
MM121 VDD! 6 64 pmos  W=2.1e-08 L=1.5e-08 NFIN=2 ADEO=2.835e-16 ASEO=5.67e-16 PDEO=5.85e-08
+	 PSEO=1.17e-07 $X=3226 $Y=-3656  $PIN_XY=3256,-3650,3226,-3656,3196,-3650 $DEVICE_ID=1003
MM122 VDD! 5 57 pmos  W=2.1e-08 L=1.5e-08 NFIN=2 ADEO=2.835e-16 ASEO=5.67e-16 PDEO=5.85e-08
+	 PSEO=1.17e-07 $X=3226 $Y=-4580  $PIN_XY=3256,-4574,3226,-4580,3196,-4574 $DEVICE_ID=1003
MM123 66 11 VDD! pmos  W=2.1e-08 L=1.5e-08 NFIN=2 ADEO=5.67e-16 ASEO=5.67e-16 PDEO=1.17e-07
+	 PSEO=1.17e-07 $X=3058 $Y=964  $PIN_XY=3088,970,3058,964,3028,970 $DEVICE_ID=1003
MM124 68 10 VDD! pmos  W=2.1e-08 L=1.5e-08 NFIN=2 ADEO=5.67e-16 ASEO=5.67e-16 PDEO=1.17e-07
+	 PSEO=1.17e-07 $X=3058 $Y=40  $PIN_XY=3088,46,3058,40,3028,46 $DEVICE_ID=1003
MM125 61 9 VDD! pmos  W=2.1e-08 L=1.5e-08 NFIN=2 ADEO=5.67e-16 ASEO=5.67e-16 PDEO=1.17e-07
+	 PSEO=1.17e-07 $X=3058 $Y=-884  $PIN_XY=3088,-878,3058,-884,3028,-878 $DEVICE_ID=1003
MM126 59 8 VDD! pmos  W=2.1e-08 L=1.5e-08 NFIN=2 ADEO=5.67e-16 ASEO=5.67e-16 PDEO=1.17e-07
+	 PSEO=1.17e-07 $X=3058 $Y=-1808  $PIN_XY=3088,-1802,3058,-1808,3028,-1802 $DEVICE_ID=1003
MM127 55 7 VDD! pmos  W=2.1e-08 L=1.5e-08 NFIN=2 ADEO=5.67e-16 ASEO=5.67e-16 PDEO=1.17e-07
+	 PSEO=1.17e-07 $X=3058 $Y=-2732  $PIN_XY=3088,-2726,3058,-2732,3028,-2726 $DEVICE_ID=1003
MM128 64 6 VDD! pmos  W=2.1e-08 L=1.5e-08 NFIN=2 ADEO=5.67e-16 ASEO=5.67e-16 PDEO=1.17e-07
+	 PSEO=1.17e-07 $X=3058 $Y=-3656  $PIN_XY=3088,-3650,3058,-3656,3028,-3650 $DEVICE_ID=1003
MM129 57 5 VDD! pmos  W=2.1e-08 L=1.5e-08 NFIN=2 ADEO=5.67e-16 ASEO=5.67e-16 PDEO=1.17e-07
+	 PSEO=1.17e-07 $X=3058 $Y=-4580  $PIN_XY=3088,-4574,3058,-4580,3028,-4574 $DEVICE_ID=1003
MM130 11 36 92 pmos  W=2.1e-08 L=1.5e-08 NFIN=2 ADEO=2.835e-16 ASEO=5.67e-16 PDEO=5.85e-08
+	 PSEO=1.17e-07 $X=2890 $Y=1346  $PIN_XY=2920,1260,2890,1346,2860,1260 $DEVICE_ID=1003
MM131 VDD! 11 66 pmos  W=2.1e-08 L=1.5e-08 NFIN=2 ADEO=5.67e-16 ASEO=5.67e-16 PDEO=1.17e-07
+	 PSEO=1.17e-07 $X=2890 $Y=884  $PIN_XY=2920,970,2890,884,2860,970 $DEVICE_ID=1003
MM132 10 35 93 pmos  W=2.1e-08 L=1.5e-08 NFIN=2 ADEO=2.835e-16 ASEO=5.67e-16 PDEO=5.85e-08
+	 PSEO=1.17e-07 $X=2890 $Y=422  $PIN_XY=2920,336,2890,422,2860,336 $DEVICE_ID=1003
MM133 VDD! 10 68 pmos  W=2.1e-08 L=1.5e-08 NFIN=2 ADEO=5.67e-16 ASEO=5.67e-16 PDEO=1.17e-07
+	 PSEO=1.17e-07 $X=2890 $Y=-40  $PIN_XY=2920,46,2890,-40,2860,46 $DEVICE_ID=1003
MM134 9 34 91 pmos  W=2.1e-08 L=1.5e-08 NFIN=2 ADEO=2.835e-16 ASEO=5.67e-16 PDEO=5.85e-08
+	 PSEO=1.17e-07 $X=2890 $Y=-502  $PIN_XY=2920,-588,2890,-502,2860,-588 $DEVICE_ID=1003
MM135 VDD! 9 61 pmos  W=2.1e-08 L=1.5e-08 NFIN=2 ADEO=5.67e-16 ASEO=5.67e-16 PDEO=1.17e-07
+	 PSEO=1.17e-07 $X=2890 $Y=-964  $PIN_XY=2920,-878,2890,-964,2860,-878 $DEVICE_ID=1003
MM136 8 33 90 pmos  W=2.1e-08 L=1.5e-08 NFIN=2 ADEO=2.835e-16 ASEO=5.67e-16 PDEO=5.85e-08
+	 PSEO=1.17e-07 $X=2890 $Y=-1426  $PIN_XY=2920,-1512,2890,-1426,2860,-1512 $DEVICE_ID=1003
MM137 VDD! 8 59 pmos  W=2.1e-08 L=1.5e-08 NFIN=2 ADEO=5.67e-16 ASEO=5.67e-16 PDEO=1.17e-07
+	 PSEO=1.17e-07 $X=2890 $Y=-1888  $PIN_XY=2920,-1802,2890,-1888,2860,-1802 $DEVICE_ID=1003
MM138 7 27 87 pmos  W=2.1e-08 L=1.5e-08 NFIN=2 ADEO=2.835e-16 ASEO=5.67e-16 PDEO=5.85e-08
+	 PSEO=1.17e-07 $X=2890 $Y=-2350  $PIN_XY=2920,-2436,2890,-2350,2860,-2436 $DEVICE_ID=1003
MM139 VDD! 7 55 pmos  W=2.1e-08 L=1.5e-08 NFIN=2 ADEO=5.67e-16 ASEO=5.67e-16 PDEO=1.17e-07
+	 PSEO=1.17e-07 $X=2890 $Y=-2812  $PIN_XY=2920,-2726,2890,-2812,2860,-2726 $DEVICE_ID=1003
MM140 6 26 88 pmos  W=2.1e-08 L=1.5e-08 NFIN=2 ADEO=2.835e-16 ASEO=5.67e-16 PDEO=5.85e-08
+	 PSEO=1.17e-07 $X=2890 $Y=-3274  $PIN_XY=2920,-3360,2890,-3274,2860,-3360 $DEVICE_ID=1003
MM141 VDD! 6 64 pmos  W=2.1e-08 L=1.5e-08 NFIN=2 ADEO=5.67e-16 ASEO=5.67e-16 PDEO=1.17e-07
+	 PSEO=1.17e-07 $X=2890 $Y=-3736  $PIN_XY=2920,-3650,2890,-3736,2860,-3650 $DEVICE_ID=1003
MM142 5 25 86 pmos  W=2.1e-08 L=1.5e-08 NFIN=2 ADEO=2.835e-16 ASEO=5.67e-16 PDEO=5.85e-08
+	 PSEO=1.17e-07 $X=2890 $Y=-4198  $PIN_XY=2920,-4284,2890,-4198,2860,-4284 $DEVICE_ID=1003
MM143 92 32 VDD! pmos  W=2.1e-08 L=1.5e-08 NFIN=2 ADEO=5.67e-16 ASEO=2.835e-16 PDEO=1.17e-07
+	 PSEO=5.85e-08 $X=2722 $Y=1346  $PIN_XY=2752,1260,2722,1346,2692,1260 $DEVICE_ID=1003
MM144 66 11 VDD! pmos  W=2.1e-08 L=1.5e-08 NFIN=2 ADEO=5.67e-16 ASEO=2.835e-16 PDEO=1.17e-07
+	 PSEO=5.85e-08 $X=2722 $Y=884  $PIN_XY=2752,970,2722,884,2692,970 $DEVICE_ID=1003
MM145 93 31 VDD! pmos  W=2.1e-08 L=1.5e-08 NFIN=2 ADEO=5.67e-16 ASEO=2.835e-16 PDEO=1.17e-07
+	 PSEO=5.85e-08 $X=2722 $Y=422  $PIN_XY=2752,336,2722,422,2692,336 $DEVICE_ID=1003
MM146 68 10 VDD! pmos  W=2.1e-08 L=1.5e-08 NFIN=2 ADEO=5.67e-16 ASEO=2.835e-16 PDEO=1.17e-07
+	 PSEO=5.85e-08 $X=2722 $Y=-40  $PIN_XY=2752,46,2722,-40,2692,46 $DEVICE_ID=1003
MM147 91 30 VDD! pmos  W=2.1e-08 L=1.5e-08 NFIN=2 ADEO=5.67e-16 ASEO=2.835e-16 PDEO=1.17e-07
+	 PSEO=5.85e-08 $X=2722 $Y=-502  $PIN_XY=2752,-588,2722,-502,2692,-588 $DEVICE_ID=1003
MM148 61 9 VDD! pmos  W=2.1e-08 L=1.5e-08 NFIN=2 ADEO=5.67e-16 ASEO=2.835e-16 PDEO=1.17e-07
+	 PSEO=5.85e-08 $X=2722 $Y=-964  $PIN_XY=2752,-878,2722,-964,2692,-878 $DEVICE_ID=1003
MM149 90 29 VDD! pmos  W=2.1e-08 L=1.5e-08 NFIN=2 ADEO=5.67e-16 ASEO=2.835e-16 PDEO=1.17e-07
+	 PSEO=5.85e-08 $X=2722 $Y=-1426  $PIN_XY=2752,-1512,2722,-1426,2692,-1512 $DEVICE_ID=1003
MM150 59 8 VDD! pmos  W=2.1e-08 L=1.5e-08 NFIN=2 ADEO=5.67e-16 ASEO=2.835e-16 PDEO=1.17e-07
+	 PSEO=5.85e-08 $X=2722 $Y=-1888  $PIN_XY=2752,-1802,2722,-1888,2692,-1802 $DEVICE_ID=1003
MM151 87 23 VDD! pmos  W=2.1e-08 L=1.5e-08 NFIN=2 ADEO=5.67e-16 ASEO=2.835e-16 PDEO=1.17e-07
+	 PSEO=5.85e-08 $X=2722 $Y=-2350  $PIN_XY=2752,-2436,2722,-2350,2692,-2436 $DEVICE_ID=1003
MM152 55 7 VDD! pmos  W=2.1e-08 L=1.5e-08 NFIN=2 ADEO=5.67e-16 ASEO=2.835e-16 PDEO=1.17e-07
+	 PSEO=5.85e-08 $X=2722 $Y=-2812  $PIN_XY=2752,-2726,2722,-2812,2692,-2726 $DEVICE_ID=1003
MM153 88 22 VDD! pmos  W=2.1e-08 L=1.5e-08 NFIN=2 ADEO=5.67e-16 ASEO=2.835e-16 PDEO=1.17e-07
+	 PSEO=5.85e-08 $X=2722 $Y=-3274  $PIN_XY=2752,-3360,2722,-3274,2692,-3360 $DEVICE_ID=1003
MM154 64 6 VDD! pmos  W=2.1e-08 L=1.5e-08 NFIN=2 ADEO=5.67e-16 ASEO=2.835e-16 PDEO=1.17e-07
+	 PSEO=5.85e-08 $X=2722 $Y=-3736  $PIN_XY=2752,-3650,2722,-3736,2692,-3650 $DEVICE_ID=1003
MM155 86 21 VDD! pmos  W=2.1e-08 L=1.5e-08 NFIN=2 ADEO=5.67e-16 ASEO=2.835e-16 PDEO=1.17e-07
+	 PSEO=5.85e-08 $X=2722 $Y=-4198  $PIN_XY=2752,-4284,2722,-4198,2692,-4284 $DEVICE_ID=1003
MM156 VDD! 19 36 pmos  W=2.1e-08 L=1.5e-08 NFIN=2 ADEO=2.835e-16 ASEO=5.67e-16 PDEO=5.85e-08
+	 PSEO=1.17e-07 $X=2218 $Y=1346  $PIN_XY=2248,1260,2218,1346,2188,1260 $DEVICE_ID=1003
MM157 VDD! 12 32 pmos  W=2.1e-08 L=1.5e-08 NFIN=2 ADEO=2.835e-16 ASEO=5.67e-16 PDEO=5.85e-08
+	 PSEO=1.17e-07 $X=2218 $Y=884  $PIN_XY=2248,970,2218,884,2188,970 $DEVICE_ID=1003
MM158 VDD! 19 35 pmos  W=2.1e-08 L=1.5e-08 NFIN=2 ADEO=2.835e-16 ASEO=5.67e-16 PDEO=5.85e-08
+	 PSEO=1.17e-07 $X=2218 $Y=422  $PIN_XY=2248,336,2218,422,2188,336 $DEVICE_ID=1003
MM159 VDD! 12 31 pmos  W=2.1e-08 L=1.5e-08 NFIN=2 ADEO=2.835e-16 ASEO=5.67e-16 PDEO=5.85e-08
+	 PSEO=1.17e-07 $X=2218 $Y=-40  $PIN_XY=2248,46,2218,-40,2188,46 $DEVICE_ID=1003
MM160 VDD! A1 34 pmos  W=2.1e-08 L=1.5e-08 NFIN=2 ADEO=2.835e-16 ASEO=5.67e-16 PDEO=5.85e-08
+	 PSEO=1.17e-07 $X=2218 $Y=-502  $PIN_XY=2248,-588,2218,-502,2188,-588 $DEVICE_ID=1003
MM161 VDD! 12 30 pmos  W=2.1e-08 L=1.5e-08 NFIN=2 ADEO=2.835e-16 ASEO=5.67e-16 PDEO=5.85e-08