* PEX netlist file	Fri Apr 18 05:52:32 2025	memory_array_static_column_decoder_test
* icv_netlist Version RHEL64 W-2024.09-SP2.11100136 2024/12/03
*.UNIT=4000

* Hierarchy Level 3
.subckt sram_filler 2 3 4 5 6 7
.ends sram_filler
.subckt tspc_pos_ff 2 3 4 8 9 25 26 27
*.floating_nets 10 11 13 14 15 17 18 19 20 22 23
*+	24 28 29 30 31 32 33 34 35
MM1 4 7 2 nmos  W=2.1e-08 L=1.5e-08 NFIN=2 ADEO=2.835e-16 ASEO=5.67e-16 PDEO=5.85e-08
+	 PSEO=1.17e-07 $X=1176 $Y=294  $PIN_XY=1206,210,1176,294,1146,210 $DEVICE_ID=1001
MM2 2 6 16 nmos  W=2.1e-08 L=1.5e-08 NFIN=2 ADEO=5.67e-16 ASEO=5.67e-16 PDEO=1.17e-07
+	 PSEO=1.17e-07 $X=1008 $Y=294  $PIN_XY=1038,210,1008,294,978,210 $DEVICE_ID=1001
MM3 16 9 7 nmos  W=2.1e-08 L=1.5e-08 NFIN=2 ADEO=5.67e-16 ASEO=2.835e-16 PDEO=1.17e-07
+	 PSEO=5.85e-08 $X=840 $Y=209  $PIN_XY=870,210,840,209,810,210 $DEVICE_ID=1001
MM4 6 9 12 nmos  W=2.1e-08 L=1.5e-08 NFIN=2 ADEO=2.835e-16 ASEO=5.67e-16 PDEO=5.85e-08
+	 PSEO=1.17e-07 $X=504 $Y=209  $PIN_XY=534,210,504,209,474,210 $DEVICE_ID=1001
MM5 12 5 2 nmos  W=2.1e-08 L=1.5e-08 NFIN=2 ADEO=5.67e-16 ASEO=5.67e-16 PDEO=1.17e-07
+	 PSEO=1.17e-07 $X=336 $Y=209  $PIN_XY=366,210,336,209,306,210 $DEVICE_ID=1001
MM6 2 8 5 nmos  W=2.1e-08 L=1.5e-08 NFIN=2 ADEO=5.67e-16 ASEO=2.835e-16 PDEO=1.17e-07
+	 PSEO=5.85e-08 $X=168 $Y=209  $PIN_XY=198,210,168,209,138,210 $DEVICE_ID=1001
MM7 4 7 3 pmos  W=2.1e-08 L=1.5e-08 NFIN=2 ADEO=2.835e-16 ASEO=5.67e-16 PDEO=5.85e-08
+	 PSEO=1.17e-07 $X=1176 $Y=294  $PIN_XY=1206,380,1176,294,1146,380 $DEVICE_ID=1003
MM8 3 6 7 pmos  W=2.1e-08 L=1.5e-08 NFIN=2 ADEO=5.67e-16 ASEO=2.835e-16 PDEO=1.17e-07
+	 PSEO=5.85e-08 $X=1008 $Y=294  $PIN_XY=1038,380,1008,294,978,380 $DEVICE_ID=1003
MM9 5 9 21 pmos  W=2.1e-08 L=1.5e-08 NFIN=2 ADEO=2.835e-16 ASEO=5.67e-16 PDEO=5.85e-08
+	 PSEO=1.17e-07 $X=504 $Y=649  $PIN_XY=534,670,504,649,474,670 $DEVICE_ID=1003
MM10 21 8 3 pmos  W=2.1e-08 L=1.5e-08 NFIN=2 ADEO=5.67e-16 ASEO=5.67e-16 PDEO=1.17e-07
+	 PSEO=1.17e-07 $X=336 $Y=670  $PIN_XY=366,670,336,670,306,670 $DEVICE_ID=1003
MM11 3 9 6 pmos  W=2.1e-08 L=1.5e-08 NFIN=2 ADEO=5.67e-16 ASEO=2.835e-16 PDEO=1.17e-07
+	 PSEO=5.85e-08 $X=168 $Y=670  $PIN_XY=198,670,168,670,138,670 $DEVICE_ID=1003
.ends tspc_pos_ff
.subckt nand 2 3 4 5 6 7 10 11
*.floating_nets 8 9
.ends nand
.subckt inv 2 3 4 5 7 8
*.floating_nets 6
.ends inv
.subckt 2to4_decoder_static_filler_17 2 3 4 5 6 7
.ends 2to4_decoder_static_filler_17
.subckt Filler 2 3 4 5 6 7 8 9
.ends Filler
.subckt precharge_logic 2 3 4 5 6 7 8 11 12
*.floating_nets 9 10
.ends precharge_logic
.subckt sram_6t 2 3 4 5 6 7 8 9 10 11 14
+	15 16
*.floating_nets 12 13 17 18
MM1 3 6 7 pmos  W=2.1e-08 L=1.5e-08 NFIN=2 ADEO=2.835e-16 ASEO=2.835e-16 PDEO=5.85e-08
+	 PSEO=5.85e-08 $X=366 $Y=756  $PIN_XY=396,670,366,756,336,670 $DEVICE_ID=1003
.ends sram_6t
.subckt bitcell_precharge_filler 2 3 4 5 6 7
.ends bitcell_precharge_filler
.subckt nor 2 3 4 5 6 7 8 9
.ends nor
.subckt invx4 2 3 4 5 6 7
.ends invx4

* Hierarchy Level 2
.subckt 2to4_decoder_static 2 3 4 5 6 7 8 9 10 11 12
+	13 14 15 16 17 18 19 20 21 22 25
+	27 29 30 32 34 36 38 39 40 41 42
+	43 44 45 46 79 80 81 82 83 84 85
+	86 87
*.floating_nets 47 48 49 50 51 52 53 54 55 56 57
*+	58 59 60 61 62 63 64 65 66 67 68
*+	69 70 71 72 73 74 75 76 77 78 96
*+	97 98 99 100 101 102 103
MM1 21 37 18 nmos  W=2.1e-08 L=1.5e-08 NFIN=2 ADEO=2.835e-16 ASEO=2.835e-16 PDEO=5.85e-08
+	 PSEO=5.85e-08 $X=2574 $Y=2243  $PIN_XY=2604,2226,2574,2243,2544,2226 $DEVICE_ID=1001
MM2 5 25 24 nmos  W=2.1e-08 L=1.5e-08 NFIN=2 ADEO=2.835e-16 ASEO=5.67e-16 PDEO=5.85e-08
+	 PSEO=1.17e-07 $X=2406 $Y=1197  $PIN_XY=2436,1302,2406,1197,2376,1302 $DEVICE_ID=1001
MM3 46 43 95 nmos  W=2.1e-08 L=1.5e-08 NFIN=2 ADEO=2.835e-16 ASEO=5.67e-16 PDEO=5.85e-08
+	 PSEO=1.17e-07 $X=2406 $Y=294  $PIN_XY=2436,378,2406,294,2376,378 $DEVICE_ID=1001
MM4 17 37 19 nmos  W=2.1e-08 L=1.5e-08 NFIN=2 ADEO=2.835e-16 ASEO=2.835e-16 PDEO=5.85e-08
+	 PSEO=5.85e-08 $X=2238 $Y=2244  $PIN_XY=2268,2226,2238,2244,2208,2226 $DEVICE_ID=1001
MM5 38 24 5 nmos  W=2.1e-08 L=1.5e-08 NFIN=2 ADEO=2.835e-16 ASEO=2.835e-16 PDEO=5.85e-08
+	 PSEO=5.85e-08 $X=2238 $Y=1680  $PIN_XY=2268,1596,2238,1680,2208,1596 $DEVICE_ID=1001
MM6 24 42 5 nmos  W=2.1e-08 L=1.5e-08 NFIN=2 ADEO=5.67e-16 ASEO=2.835e-16 PDEO=1.17e-07
+	 PSEO=5.85e-08 $X=2238 $Y=1218  $PIN_XY=2268,1302,2238,1218,2208,1302 $DEVICE_ID=1001
MM7 37 46 3 nmos  W=2.1e-08 L=1.5e-08 NFIN=2 ADEO=2.835e-16 ASEO=2.835e-16 PDEO=5.85e-08
+	 PSEO=5.85e-08 $X=2238 $Y=756  $PIN_XY=2268,672,2238,756,2208,672 $DEVICE_ID=1001
MM8 95 30 3 nmos  W=2.1e-08 L=1.5e-08 NFIN=2 ADEO=5.67e-16 ASEO=2.835e-16 PDEO=1.17e-07
+	 PSEO=5.85e-08 $X=2238 $Y=315  $PIN_XY=2268,378,2238,315,2208,378 $DEVICE_ID=1001
MM9 21 35 16 nmos  W=2.1e-08 L=1.5e-08 NFIN=2 ADEO=2.835e-16 ASEO=2.835e-16 PDEO=5.85e-08
+	 PSEO=5.85e-08 $X=1902 $Y=2243  $PIN_XY=1932,2226,1902,2243,1872,2226 $DEVICE_ID=1001
MM10 5 25 23 nmos  W=2.1e-08 L=1.5e-08 NFIN=2 ADEO=2.835e-16 ASEO=5.67e-16 PDEO=5.85e-08
+	 PSEO=1.17e-07 $X=1734 $Y=1197  $PIN_XY=1764,1302,1734,1197,1704,1302 $DEVICE_ID=1001
MM11 45 30 94 nmos  W=2.1e-08 L=1.5e-08 NFIN=2 ADEO=2.835e-16 ASEO=5.67e-16 PDEO=5.85e-08
+	 PSEO=1.17e-07 $X=1734 $Y=294  $PIN_XY=1764,378,1734,294,1704,378 $DEVICE_ID=1001
MM12 15 35 19 nmos  W=2.1e-08 L=1.5e-08 NFIN=2 ADEO=2.835e-16 ASEO=2.835e-16 PDEO=5.85e-08
+	 PSEO=5.85e-08 $X=1566 $Y=2244  $PIN_XY=1596,2226,1566,2244,1536,2226 $DEVICE_ID=1001
MM13 36 23 5 nmos  W=2.1e-08 L=1.5e-08 NFIN=2 ADEO=2.835e-16 ASEO=2.835e-16 PDEO=5.85e-08
+	 PSEO=5.85e-08 $X=1566 $Y=1680  $PIN_XY=1596,1596,1566,1680,1536,1596 $DEVICE_ID=1001
MM14 23 40 5 nmos  W=2.1e-08 L=1.5e-08 NFIN=2 ADEO=5.67e-16 ASEO=2.835e-16 PDEO=1.17e-07
+	 PSEO=5.85e-08 $X=1566 $Y=1218  $PIN_XY=1596,1302,1566,1218,1536,1302 $DEVICE_ID=1001
MM15 35 45 3 nmos  W=2.1e-08 L=1.5e-08 NFIN=2 ADEO=2.835e-16 ASEO=2.835e-16 PDEO=5.85e-08
+	 PSEO=5.85e-08 $X=1566 $Y=756  $PIN_XY=1596,672,1566,756,1536,672 $DEVICE_ID=1001
MM16 94 39 3 nmos  W=2.1e-08 L=1.5e-08 NFIN=2 ADEO=5.67e-16 ASEO=2.835e-16 PDEO=1.17e-07
+	 PSEO=5.85e-08 $X=1566 $Y=315  $PIN_XY=1596,378,1566,315,1536,378 $DEVICE_ID=1001
MM17 21 33 14 nmos  W=2.1e-08 L=1.5e-08 NFIN=2 ADEO=2.835e-16 ASEO=2.835e-16 PDEO=5.85e-08
+	 PSEO=5.85e-08 $X=1230 $Y=2243  $PIN_XY=1260,2226,1230,2243,1200,2226 $DEVICE_ID=1001
MM18 5 27 26 nmos  W=2.1e-08 L=1.5e-08 NFIN=2 ADEO=2.835e-16 ASEO=5.67e-16 PDEO=5.85e-08
+	 PSEO=1.17e-07 $X=1062 $Y=1197  $PIN_XY=1092,1302,1062,1197,1032,1302 $DEVICE_ID=1001
MM19 44 43 93 nmos  W=2.1e-08 L=1.5e-08 NFIN=2 ADEO=2.835e-16 ASEO=5.67e-16 PDEO=5.85e-08
+	 PSEO=1.17e-07 $X=1062 $Y=294  $PIN_XY=1092,378,1062,294,1032,378 $DEVICE_ID=1001
MM20 13 33 19 nmos  W=2.1e-08 L=1.5e-08 NFIN=2 ADEO=2.835e-16 ASEO=2.835e-16 PDEO=5.85e-08
+	 PSEO=5.85e-08 $X=894 $Y=2244  $PIN_XY=924,2226,894,2244,864,2226 $DEVICE_ID=1001
MM21 34 26 5 nmos  W=2.1e-08 L=1.5e-08 NFIN=2 ADEO=2.835e-16 ASEO=2.835e-16 PDEO=5.85e-08
+	 PSEO=5.85e-08 $X=894 $Y=1680  $PIN_XY=924,1596,894,1680,864,1596 $DEVICE_ID=1001
MM22 26 42 5 nmos  W=2.1e-08 L=1.5e-08 NFIN=2 ADEO=5.67e-16 ASEO=2.835e-16 PDEO=1.17e-07
+	 PSEO=5.85e-08 $X=894 $Y=1218  $PIN_XY=924,1302,894,1218,864,1302 $DEVICE_ID=1001
MM23 33 44 3 nmos  W=2.1e-08 L=1.5e-08 NFIN=2 ADEO=2.835e-16 ASEO=2.835e-16 PDEO=5.85e-08
+	 PSEO=5.85e-08 $X=894 $Y=756  $PIN_XY=924,672,894,756,864,672 $DEVICE_ID=1001
MM24 93 29 3 nmos  W=2.1e-08 L=1.5e-08 NFIN=2 ADEO=5.67e-16 ASEO=2.835e-16 PDEO=1.17e-07
+	 PSEO=5.85e-08 $X=894 $Y=315  $PIN_XY=924,378,894,315,864,378 $DEVICE_ID=1001
MM25 21 31 12 nmos  W=2.1e-08 L=1.5e-08 NFIN=2 ADEO=2.835e-16 ASEO=2.835e-16 PDEO=5.85e-08
+	 PSEO=5.85e-08 $X=558 $Y=2243  $PIN_XY=588,2226,558,2243,528,2226 $DEVICE_ID=1001
MM26 5 27 28 nmos  W=2.1e-08 L=1.5e-08 NFIN=2 ADEO=2.835e-16 ASEO=5.67e-16 PDEO=5.85e-08
+	 PSEO=1.17e-07 $X=390 $Y=1197  $PIN_XY=420,1302,390,1197,360,1302 $DEVICE_ID=1001
MM27 41 29 92 nmos  W=2.1e-08 L=1.5e-08 NFIN=2 ADEO=2.835e-16 ASEO=5.67e-16 PDEO=5.85e-08
+	 PSEO=1.17e-07 $X=390 $Y=294  $PIN_XY=420,378,390,294,360,378 $DEVICE_ID=1001
MM28 11 31 19 nmos  W=2.1e-08 L=1.5e-08 NFIN=2 ADEO=2.835e-16 ASEO=2.835e-16 PDEO=5.85e-08
+	 PSEO=5.85e-08 $X=222 $Y=2267  $PIN_XY=252,2226,222,2267,192,2226 $DEVICE_ID=1001
MM29 32 28 5 nmos  W=2.1e-08 L=1.5e-08 NFIN=2 ADEO=2.835e-16 ASEO=2.835e-16 PDEO=5.85e-08
+	 PSEO=5.85e-08 $X=222 $Y=1680  $PIN_XY=252,1596,222,1680,192,1596 $DEVICE_ID=1001
MM30 28 40 5 nmos  W=2.1e-08 L=1.5e-08 NFIN=2 ADEO=5.67e-16 ASEO=2.835e-16 PDEO=1.17e-07
+	 PSEO=5.85e-08 $X=222 $Y=1218  $PIN_XY=252,1302,222,1218,192,1302 $DEVICE_ID=1001
MM31 31 41 3 nmos  W=2.1e-08 L=1.5e-08 NFIN=2 ADEO=2.835e-16 ASEO=2.835e-16 PDEO=5.85e-08
+	 PSEO=5.85e-08 $X=222 $Y=756  $PIN_XY=252,672,222,756,192,672 $DEVICE_ID=1001
MM32 92 39 3 nmos  W=2.1e-08 L=1.5e-08 NFIN=2 ADEO=5.67e-16 ASEO=2.835e-16 PDEO=1.17e-07
+	 PSEO=5.85e-08 $X=222 $Y=315  $PIN_XY=252,378,222,315,192,378 $DEVICE_ID=1001
MM33 6 24 38 pmos  W=2.1e-08 L=1.5e-08 NFIN=2 ADEO=2.835e-16 ASEO=5.67e-16 PDEO=5.85e-08
+	 PSEO=1.17e-07 $X=2406 $Y=1781  $PIN_XY=2436,1766,2406,1781,2376,1766 $DEVICE_ID=1003
MM34 24 25 88 pmos  W=2.1e-08 L=1.5e-08 NFIN=2 ADEO=2.835e-16 ASEO=5.67e-16 PDEO=5.85e-08
+	 PSEO=1.17e-07 $X=2406 $Y=1197  $PIN_XY=2436,1132,2406,1197,2376,1132 $DEVICE_ID=1003
MM35 4 46 37 pmos  W=2.1e-08 L=1.5e-08 NFIN=2 ADEO=2.835e-16 ASEO=5.67e-16 PDEO=5.85e-08
+	 PSEO=1.17e-07 $X=2406 $Y=857  $PIN_XY=2436,842,2406,857,2376,842 $DEVICE_ID=1003
MM36 38 24 6 pmos  W=2.1e-08 L=1.5e-08 NFIN=2 ADEO=5.67e-16 ASEO=2.835e-16 PDEO=1.17e-07
+	 PSEO=5.85e-08 $X=2238 $Y=1680  $PIN_XY=2268,1766,2238,1680,2208,1766 $DEVICE_ID=1003
MM37 88 42 4 pmos  W=2.1e-08 L=1.5e-08 NFIN=2 ADEO=5.67e-16 ASEO=2.835e-16 PDEO=1.17e-07
+	 PSEO=5.85e-08 $X=2238 $Y=1218  $PIN_XY=2268,1132,2238,1218,2208,1132 $DEVICE_ID=1003
MM38 37 46 4 pmos  W=2.1e-08 L=1.5e-08 NFIN=2 ADEO=5.67e-16 ASEO=2.835e-16 PDEO=1.17e-07
+	 PSEO=5.85e-08 $X=2238 $Y=756  $PIN_XY=2268,842,2238,756,2208,842 $DEVICE_ID=1003
MM39 6 23 36 pmos  W=2.1e-08 L=1.5e-08 NFIN=2 ADEO=2.835e-16 ASEO=5.67e-16 PDEO=5.85e-08
+	 PSEO=1.17e-07 $X=1734 $Y=1781  $PIN_XY=1764,1766,1734,1781,1704,1766 $DEVICE_ID=1003
MM40 23 25 89 pmos  W=2.1e-08 L=1.5e-08 NFIN=2 ADEO=2.835e-16 ASEO=5.67e-16 PDEO=5.85e-08
+	 PSEO=1.17e-07 $X=1734 $Y=1197  $PIN_XY=1764,1132,1734,1197,1704,1132 $DEVICE_ID=1003
MM41 4 45 35 pmos  W=2.1e-08 L=1.5e-08 NFIN=2 ADEO=2.835e-16 ASEO=5.67e-16 PDEO=5.85e-08
+	 PSEO=1.17e-07 $X=1734 $Y=857  $PIN_XY=1764,842,1734,857,1704,842 $DEVICE_ID=1003
MM42 36 23 6 pmos  W=2.1e-08 L=1.5e-08 NFIN=2 ADEO=5.67e-16 ASEO=2.835e-16 PDEO=1.17e-07
+	 PSEO=5.85e-08 $X=1566 $Y=1680  $PIN_XY=1596,1766,1566,1680,1536,1766 $DEVICE_ID=1003
MM43 89 40 4 pmos  W=2.1e-08 L=1.5e-08 NFIN=2 ADEO=5.67e-16 ASEO=2.835e-16 PDEO=1.17e-07
+	 PSEO=5.85e-08 $X=1566 $Y=1218  $PIN_XY=1596,1132,1566,1218,1536,1132 $DEVICE_ID=1003
MM44 35 45 4 pmos  W=2.1e-08 L=1.5e-08 NFIN=2 ADEO=5.67e-16 ASEO=2.835e-16 PDEO=1.17e-07
+	 PSEO=5.85e-08 $X=1566 $Y=756  $PIN_XY=1596,842,1566,756,1536,842 $DEVICE_ID=1003
MM45 6 26 34 pmos  W=2.1e-08 L=1.5e-08 NFIN=2 ADEO=2.835e-16 ASEO=5.67e-16 PDEO=5.85e-08
+	 PSEO=1.17e-07 $X=1062 $Y=1781  $PIN_XY=1092,1766,1062,1781,1032,1766 $DEVICE_ID=1003
MM46 26 27 90 pmos  W=2.1e-08 L=1.5e-08 NFIN=2 ADEO=2.835e-16 ASEO=5.67e-16 PDEO=5.85e-08
+	 PSEO=1.17e-07 $X=1062 $Y=1197  $PIN_XY=1092,1132,1062,1197,1032,1132 $DEVICE_ID=1003
MM47 4 44 33 pmos  W=2.1e-08 L=1.5e-08 NFIN=2 ADEO=2.835e-16 ASEO=5.67e-16 PDEO=5.85e-08
+	 PSEO=1.17e-07 $X=1062 $Y=857  $PIN_XY=1092,842,1062,857,1032,842 $DEVICE_ID=1003
MM48 34 26 6 pmos  W=2.1e-08 L=1.5e-08 NFIN=2 ADEO=5.67e-16 ASEO=2.835e-16 PDEO=1.17e-07
+	 PSEO=5.85e-08 $X=894 $Y=1680  $PIN_XY=924,1766,894,1680,864,1766 $DEVICE_ID=1003
MM49 90 42 4 pmos  W=2.1e-08 L=1.5e-08 NFIN=2 ADEO=5.67e-16 ASEO=2.835e-16 PDEO=1.17e-07
+	 PSEO=5.85e-08 $X=894 $Y=1218  $PIN_XY=924,1132,894,1218,864,1132 $DEVICE_ID=1003
MM50 33 44 4 pmos  W=2.1e-08 L=1.5e-08 NFIN=2 ADEO=5.67e-16 ASEO=2.835e-16 PDEO=1.17e-07
+	 PSEO=5.85e-08 $X=894 $Y=756  $PIN_XY=924,842,894,756,864,842 $DEVICE_ID=1003
MM51 6 28 32 pmos  W=2.1e-08 L=1.5e-08 NFIN=2 ADEO=2.835e-16 ASEO=5.67e-16 PDEO=5.85e-08
+	 PSEO=1.17e-07 $X=390 $Y=1781  $PIN_XY=420,1766,390,1781,360,1766 $DEVICE_ID=1003
MM52 28 27 91 pmos  W=2.1e-08 L=1.5e-08 NFIN=2 ADEO=2.835e-16 ASEO=5.67e-16 PDEO=5.85e-08
+	 PSEO=1.17e-07 $X=390 $Y=1197  $PIN_XY=420,1132,390,1197,360,1132 $DEVICE_ID=1003
MM53 4 41 31 pmos  W=2.1e-08 L=1.5e-08 NFIN=2 ADEO=2.835e-16 ASEO=5.67e-16 PDEO=5.85e-08
+	 PSEO=1.17e-07 $X=390 $Y=857  $PIN_XY=420,842,390,857,360,842 $DEVICE_ID=1003
MM54 32 28 6 pmos  W=2.1e-08 L=1.5e-08 NFIN=2 ADEO=5.67e-16 ASEO=2.835e-16 PDEO=1.17e-07
+	 PSEO=5.85e-08 $X=222 $Y=1680  $PIN_XY=252,1766,222,1680,192,1766 $DEVICE_ID=1003
MM55 91 40 4 pmos  W=2.1e-08 L=1.5e-08 NFIN=2 ADEO=5.67e-16 ASEO=2.835e-16 PDEO=1.17e-07
+	 PSEO=5.85e-08 $X=222 $Y=1218  $PIN_XY=252,1132,222,1218,192,1132 $DEVICE_ID=1003
MM56 31 41 4 pmos  W=2.1e-08 L=1.5e-08 NFIN=2 ADEO=5.67e-16 ASEO=2.835e-16 PDEO=1.17e-07
+	 PSEO=5.85e-08 $X=222 $Y=756  $PIN_XY=252,842,222,756,192,842 $DEVICE_ID=1003
XXB19A871F999 5 6 36 23 79 83 inv $T=1344 1386 0 0 $X=1344 $Y=1386
XXB19A871F1000 5 6 38 24 79 83 inv $T=2016 1386 0 0 $X=2016 $Y=1386
XXB19A871F1001 5 6 34 26 79 83 inv $T=672 1386 0 0 $X=672 $Y=1386
XXB19A871F1002 5 6 32 28 79 83 inv $T=0 1386 0 0 $X=0 $Y=1386
XXB19A871F1003 3 4 37 46 80 84 inv $T=2016 462 0 0 $X=2016 $Y=462
XXB19A871F1004 3 4 35 45 80 84 inv $T=1344 462 0 0 $X=1344 $Y=462
XXB19A871F1005 3 4 33 44 80 84 inv $T=672 462 0 0 $X=672 $Y=462
XXB19A871F1006 3 4 31 41 80 84 inv $T=0 462 0 0 $X=0 $Y=462
XXB19A871F1007 5 4 24 25 42 88 79 84 nor $T=1388 1514 1 0 $X=2016 $Y=922
XXB19A871F1008 5 4 23 25 40 89 79 84 nor $T=716 1514 1 0 $X=1343 $Y=922
XXB19A871F1009 5 4 26 27 42 90 79 84 nor $T=44 1514 1 0 $X=672 $Y=922
XXB19A871F1010 5 4 28 27 40 91 79 84 nor $T=-628 1514 1 0 $X=0 $Y=922
XXB19A871F1011 3 2 41 39 29 92 80 85 nand $T=-418 816 1 0 $X=0 $Y=-2
XXB19A871F1012 3 2 44 29 43 93 80 85 nand $T=254 816 1 0 $X=671 $Y=-2
XXB19A871F1013 3 2 45 39 30 94 80 85 nand $T=926 816 1 0 $X=1344 $Y=-2
XXB19A871F1014 3 2 46 30 43 95 80 85 nand $T=1598 816 1 0 $X=2016 $Y=-2
.ends 2to4_decoder_static
.subckt between_blocks 2 3 4 5 6 7 8 9 10 12 13
+	15 16 17 18 19 20 25 26 27 28 29
+	30 31 32 33 34 35 36 37 38 39 40
+	41 42 43 44 45 53
MM1 9 22 28 nmos  W=2.1e-08 L=1.5e-08 NFIN=2 ADEO=2.835e-16 ASEO=2.835e-16 PDEO=5.85e-08
+	 PSEO=5.85e-08 $X=1390 $Y=1777  $PIN_XY=1420,1882,1390,1777,1360,1882 $DEVICE_ID=1001
MM2 7 21 35 nmos  W=2.1e-08 L=1.5e-08 NFIN=2 ADEO=2.835e-16 ASEO=2.835e-16 PDEO=5.85e-08
+	 PSEO=5.85e-08 $X=1390 $Y=853  $PIN_XY=1420,958,1390,853,1360,958 $DEVICE_ID=1001
MM3 5 14 34 nmos  W=2.1e-08 L=1.5e-08 NFIN=2 ADEO=2.835e-16 ASEO=2.835e-16 PDEO=5.85e-08
+	 PSEO=5.85e-08 $X=1390 $Y=-71  $PIN_XY=1420,34,1390,-71,1360,34 $DEVICE_ID=1001
MM4 2 13 30 nmos  W=2.1e-08 L=1.5e-08 NFIN=2 ADEO=2.835e-16 ASEO=2.835e-16 PDEO=5.85e-08
+	 PSEO=5.85e-08 $X=1390 $Y=-974  $PIN_XY=1420,-890,1390,-974,1360,-890 $DEVICE_ID=1001
MM5 36 12 9 nmos  W=2.1e-08 L=1.5e-08 NFIN=2 ADEO=2.835e-16 ASEO=2.835e-16 PDEO=5.85e-08
+	 PSEO=5.85e-08 $X=1222 $Y=2260  $PIN_XY=1252,2176,1222,2260,1192,2176 $DEVICE_ID=1001
MM6 29 11 7 nmos  W=2.1e-08 L=1.5e-08 NFIN=2 ADEO=2.835e-16 ASEO=2.835e-16 PDEO=5.85e-08
+	 PSEO=5.85e-08 $X=1222 $Y=1357  $PIN_XY=1252,1252,1222,1357,1192,1252 $DEVICE_ID=1001
MM7 33 24 5 nmos  W=2.1e-08 L=1.5e-08 NFIN=2 ADEO=2.835e-16 ASEO=2.835e-16 PDEO=5.85e-08
+	 PSEO=5.85e-08 $X=1222 $Y=433  $PIN_XY=1252,328,1222,433,1192,328 $DEVICE_ID=1001
MM8 31 23 2 nmos  W=2.1e-08 L=1.5e-08 NFIN=2 ADEO=2.835e-16 ASEO=2.835e-16 PDEO=5.85e-08
+	 PSEO=5.85e-08 $X=1222 $Y=-491  $PIN_XY=1252,-596,1222,-491,1192,-596 $DEVICE_ID=1001
MM9 9 15 22 nmos  W=2.1e-08 L=1.5e-08 NFIN=2 ADEO=2.835e-16 ASEO=5.67e-16 PDEO=5.85e-08
+	 PSEO=1.17e-07 $X=886 $Y=1798  $PIN_XY=916,1882,886,1798,856,1882 $DEVICE_ID=1001
MM10 7 15 21 nmos  W=2.1e-08 L=1.5e-08 NFIN=2 ADEO=2.835e-16 ASEO=5.67e-16 PDEO=5.85e-08
+	 PSEO=1.17e-07 $X=886 $Y=874  $PIN_XY=916,958,886,874,856,958 $DEVICE_ID=1001
MM11 5 32 51 nmos  W=2.1e-08 L=1.5e-08 NFIN=2 ADEO=2.835e-16 ASEO=5.67e-16 PDEO=5.85e-08
+	 PSEO=1.17e-07 $X=886 $Y=-50  $PIN_XY=916,34,886,-50,856,34 $DEVICE_ID=1001
MM12 2 16 49 nmos  W=2.1e-08 L=1.5e-08 NFIN=2 ADEO=2.835e-16 ASEO=5.67e-16 PDEO=5.85e-08
+	 PSEO=1.17e-07 $X=886 $Y=-974  $PIN_XY=916,-890,886,-974,856,-890 $DEVICE_ID=1001
MM13 9 19 12 nmos  W=2.1e-08 L=1.5e-08 NFIN=2 ADEO=2.835e-16 ASEO=5.67e-16 PDEO=5.85e-08
+	 PSEO=1.17e-07 $X=718 $Y=2239  $PIN_XY=748,2176,718,2239,688,2176 $DEVICE_ID=1001
MM14 22 20 9 nmos  W=2.1e-08 L=1.5e-08 NFIN=2 ADEO=5.67e-16 ASEO=2.835e-16 PDEO=1.17e-07
+	 PSEO=5.85e-08 $X=718 $Y=1798  $PIN_XY=748,1882,718,1798,688,1882 $DEVICE_ID=1001
MM15 7 18 11 nmos  W=2.1e-08 L=1.5e-08 NFIN=2 ADEO=2.835e-16 ASEO=5.67e-16 PDEO=5.85e-08
+	 PSEO=1.17e-07 $X=718 $Y=1336  $PIN_XY=748,1252,718,1336,688,1252 $DEVICE_ID=1001
MM16 21 17 7 nmos  W=2.1e-08 L=1.5e-08 NFIN=2 ADEO=5.67e-16 ASEO=2.835e-16 PDEO=1.17e-07
+	 PSEO=5.85e-08 $X=718 $Y=874  $PIN_XY=748,958,718,874,688,958 $DEVICE_ID=1001
MM17 24 27 52 nmos  W=2.1e-08 L=1.5e-08 NFIN=2 ADEO=2.835e-16 ASEO=5.67e-16 PDEO=5.85e-08
+	 PSEO=1.17e-07 $X=718 $Y=412  $PIN_XY=748,328,718,412,688,328 $DEVICE_ID=1001
MM18 51 16 14 nmos  W=2.1e-08 L=1.5e-08 NFIN=2 ADEO=5.67e-16 ASEO=2.835e-16 PDEO=1.17e-07
+	 PSEO=5.85e-08 $X=718 $Y=-50  $PIN_XY=748,34,718,-50,688,34 $DEVICE_ID=1001
MM19 23 26 50 nmos  W=2.1e-08 L=1.5e-08 NFIN=2 ADEO=2.835e-16 ASEO=5.67e-16 PDEO=5.85e-08
+	 PSEO=1.17e-07 $X=718 $Y=-512  $PIN_XY=748,-596,718,-512,688,-596 $DEVICE_ID=1001
MM20 49 25 13 nmos  W=2.1e-08 L=1.5e-08 NFIN=2 ADEO=5.67e-16 ASEO=2.835e-16 PDEO=1.17e-07
+	 PSEO=5.85e-08 $X=718 $Y=-953  $PIN_XY=748,-890,718,-953,688,-890 $DEVICE_ID=1001
MM21 12 15 9 nmos  W=2.1e-08 L=1.5e-08 NFIN=2 ADEO=5.67e-16 ASEO=2.835e-16 PDEO=1.17e-07
+	 PSEO=5.85e-08 $X=550 $Y=2260  $PIN_XY=580,2176,550,2260,520,2176 $DEVICE_ID=1001
MM22 11 15 7 nmos  W=2.1e-08 L=1.5e-08 NFIN=2 ADEO=5.67e-16 ASEO=2.835e-16 PDEO=1.17e-07
+	 PSEO=5.85e-08 $X=550 $Y=1336  $PIN_XY=580,1252,550,1336,520,1252 $DEVICE_ID=1001
MM23 52 16 5 nmos  W=2.1e-08 L=1.5e-08 NFIN=2 ADEO=5.67e-16 ASEO=2.835e-16 PDEO=1.17e-07
+	 PSEO=5.85e-08 $X=550 $Y=412  $PIN_XY=580,328,550,412,520,328 $DEVICE_ID=1001
MM24 50 16 2 nmos  W=2.1e-08 L=1.5e-08 NFIN=2 ADEO=5.67e-16 ASEO=2.835e-16 PDEO=1.17e-07
+	 PSEO=5.85e-08 $X=550 $Y=-512  $PIN_XY=580,-596,550,-512,520,-596 $DEVICE_ID=1001
MM25 8 22 28 pmos  W=2.1e-08 L=1.5e-08 NFIN=2 ADEO=2.835e-16 ASEO=5.67e-16 PDEO=5.85e-08
+	 PSEO=1.17e-07 $X=1390 $Y=1777  $PIN_XY=1420,1712,1390,1777,1360,1712 $DEVICE_ID=1003
MM26 8 11 29 pmos  W=2.1e-08 L=1.5e-08 NFIN=2 ADEO=2.835e-16 ASEO=5.67e-16 PDEO=5.85e-08
+	 PSEO=1.17e-07 $X=1390 $Y=1437  $PIN_XY=1420,1422,1390,1437,1360,1422 $DEVICE_ID=1003
MM27 6 21 35 pmos  W=2.1e-08 L=1.5e-08 NFIN=2 ADEO=2.835e-16 ASEO=5.67e-16 PDEO=5.85e-08
+	 PSEO=1.17e-07 $X=1390 $Y=853  $PIN_XY=1420,788,1390,853,1360,788 $DEVICE_ID=1003
MM28 6 24 33 pmos  W=2.1e-08 L=1.5e-08 NFIN=2 ADEO=2.835e-16 ASEO=5.67e-16 PDEO=5.85e-08
+	 PSEO=1.17e-07 $X=1390 $Y=513  $PIN_XY=1420,498,1390,513,1360,498 $DEVICE_ID=1003
MM29 4 14 34 pmos  W=2.1e-08 L=1.5e-08 NFIN=2 ADEO=2.835e-16 ASEO=5.67e-16 PDEO=5.85e-08
+	 PSEO=1.17e-07 $X=1390 $Y=-71  $PIN_XY=1420,-136,1390,-71,1360,-136 $DEVICE_ID=1003
MM30 4 23 31 pmos  W=2.1e-08 L=1.5e-08 NFIN=2 ADEO=2.835e-16 ASEO=5.67e-16 PDEO=5.85e-08
+	 PSEO=1.17e-07 $X=1390 $Y=-411  $PIN_XY=1420,-426,1390,-411,1360,-426 $DEVICE_ID=1003
MM31 28 22 8 pmos  W=2.1e-08 L=1.5e-08 NFIN=2 ADEO=5.67e-16 ASEO=2.835e-16 PDEO=1.17e-07
+	 PSEO=5.85e-08 $X=1222 $Y=1697  $PIN_XY=1252,1712,1222,1697,1192,1712 $DEVICE_ID=1003
MM32 29 11 8 pmos  W=2.1e-08 L=1.5e-08 NFIN=2 ADEO=5.67e-16 ASEO=2.835e-16 PDEO=1.17e-07
+	 PSEO=5.85e-08 $X=1222 $Y=1357  $PIN_XY=1252,1422,1222,1357,1192,1422 $DEVICE_ID=1003
MM33 35 21 6 pmos  W=2.1e-08 L=1.5e-08 NFIN=2 ADEO=5.67e-16 ASEO=2.835e-16 PDEO=1.17e-07
+	 PSEO=5.85e-08 $X=1222 $Y=773  $PIN_XY=1252,788,1222,773,1192,788 $DEVICE_ID=1003
MM34 33 24 6 pmos  W=2.1e-08 L=1.5e-08 NFIN=2 ADEO=5.67e-16 ASEO=2.835e-16 PDEO=1.17e-07
+	 PSEO=5.85e-08 $X=1222 $Y=433  $PIN_XY=1252,498,1222,433,1192,498 $DEVICE_ID=1003
MM35 34 14 4 pmos  W=2.1e-08 L=1.5e-08 NFIN=2 ADEO=5.67e-16 ASEO=2.835e-16 PDEO=1.17e-07
+	 PSEO=5.85e-08 $X=1222 $Y=-151  $PIN_XY=1252,-136,1222,-151,1192,-136 $DEVICE_ID=1003
MM36 31 23 4 pmos  W=2.1e-08 L=1.5e-08 NFIN=2 ADEO=5.67e-16 ASEO=2.835e-16 PDEO=1.17e-07
+	 PSEO=5.85e-08 $X=1222 $Y=-491  $PIN_XY=1252,-426,1222,-491,1192,-426 $DEVICE_ID=1003
MM37 8 15 48 pmos  W=2.1e-08 L=1.5e-08 NFIN=2 ADEO=2.835e-16 ASEO=5.67e-16 PDEO=5.85e-08
+	 PSEO=1.17e-07 $X=886 $Y=1798  $PIN_XY=916,1712,886,1798,856,1712 $DEVICE_ID=1003
MM38 6 15 46 pmos  W=2.1e-08 L=1.5e-08 NFIN=2 ADEO=2.835e-16 ASEO=5.67e-16 PDEO=5.85e-08
+	 PSEO=1.17e-07 $X=886 $Y=874  $PIN_XY=916,788,886,874,856,788 $DEVICE_ID=1003
MM39 4 32 14 pmos  W=2.1e-08 L=1.5e-08 NFIN=2 ADEO=2.835e-16 ASEO=5.67e-16 PDEO=5.85e-08
+	 PSEO=1.17e-07 $X=886 $Y=-50  $PIN_XY=916,-136,886,-50,856,-136 $DEVICE_ID=1003
MM40 48 20 22 pmos  W=2.1e-08 L=1.5e-08 NFIN=2 ADEO=5.67e-16 ASEO=2.835e-16 PDEO=1.17e-07
+	 PSEO=5.85e-08 $X=718 $Y=1798  $PIN_XY=748,1712,718,1798,688,1712 $DEVICE_ID=1003
MM41 11 18 47 pmos  W=2.1e-08 L=1.5e-08 NFIN=2 ADEO=2.835e-16 ASEO=5.67e-16 PDEO=5.85e-08
+	 PSEO=1.17e-07 $X=718 $Y=1336  $PIN_XY=748,1422,718,1336,688,1422 $DEVICE_ID=1003
MM42 46 17 21 pmos  W=2.1e-08 L=1.5e-08 NFIN=2 ADEO=5.67e-16 ASEO=2.835e-16 PDEO=1.17e-07
+	 PSEO=5.85e-08 $X=718 $Y=874  $PIN_XY=748,788,718,874,688,788 $DEVICE_ID=1003
MM43 6 27 24 pmos  W=2.1e-08 L=1.5e-08 NFIN=2 ADEO=2.835e-16 ASEO=5.67e-16 PDEO=5.85e-08
+	 PSEO=1.17e-07 $X=718 $Y=412  $PIN_XY=748,498,718,412,688,498 $DEVICE_ID=1003
MM44 14 16 4 pmos  W=2.1e-08 L=1.5e-08 NFIN=2 ADEO=5.67e-16 ASEO=2.835e-16 PDEO=1.17e-07
+	 PSEO=5.85e-08 $X=718 $Y=-50  $PIN_XY=748,-136,718,-50,688,-136 $DEVICE_ID=1003
MM45 4 26 23 pmos  W=2.1e-08 L=1.5e-08 NFIN=2 ADEO=2.835e-16 ASEO=5.67e-16 PDEO=5.85e-08
+	 PSEO=1.17e-07 $X=718 $Y=-512  $PIN_XY=748,-426,718,-512,688,-426 $DEVICE_ID=1003
MM46 47 15 8 pmos  W=2.1e-08 L=1.5e-08 NFIN=2 ADEO=5.67e-16 ASEO=2.835e-16 PDEO=1.17e-07
+	 PSEO=5.85e-08 $X=550 $Y=1336  $PIN_XY=580,1422,550,1336,520,1422 $DEVICE_ID=1003
MM47 24 16 6 pmos  W=2.1e-08 L=1.5e-08 NFIN=2 ADEO=5.67e-16 ASEO=2.835e-16 PDEO=1.17e-07
+	 PSEO=5.85e-08 $X=550 $Y=412  $PIN_XY=580,498,550,412,520,498 $DEVICE_ID=1003
MM48 23 16 4 pmos  W=2.1e-08 L=1.5e-08 NFIN=2 ADEO=5.67e-16 ASEO=2.835e-16 PDEO=1.17e-07
+	 PSEO=5.85e-08 $X=550 $Y=-512  $PIN_XY=580,-426,550,-512,520,-426 $DEVICE_ID=1003
XXB19A871F1015 2 3 30 13 37 41 inv $T=1612 -680 0 180 $X=1000 $Y=-1270
XXB19A871F1016 2 4 31 23 37 42 inv $T=1000 -806 0 0 $X=1000 $Y=-806
XXB19A871F1017 5 4 34 14 38 42 inv $T=1612 244 0 180 $X=1000 $Y=-346
XXB19A871F1018 5 6 33 24 38 43 inv $T=1000 118 0 0 $X=1000 $Y=118
XXB19A871F1019 7 6 35 21 39 43 inv $T=1612 1168 0 180 $X=1000 $Y=578
XXB19A871F1020 7 8 29 11 39 44 inv $T=1000 1042 0 0 $X=1000 $Y=1042
XXB19A871F1021 9 8 28 22 40 44 inv $T=1612 2092 0 180 $X=1000 $Y=1502
XXB19A871F1022 9 10 36 12 40 45 inv $T=1000 1966 0 0 $X=1000 $Y=1966
XXB19A871F1023 7 6 21 17 15 46 39 43 nor $T=1736 1170 0 180 $X=328 $Y=578
XXB19A871F1024 7 8 11 18 15 47 39 44 nor $T=-300 1040 0 0 $X=328 $Y=1042
XXB19A871F1025 9 8 22 20 15 48 40 44 nor $T=1736 2094 0 180 $X=328 $Y=1501
XXB19A871F1026 9 10 12 19 15 53 40 45 nor $T=-300 1964 0 0 $X=328 $Y=1966
XXB19A871F1027 2 3 13 16 25 49 37 41 nand $T=1526 -452 0 180 $X=328 $Y=-1270
XXB19A871F1028 2 4 23 16 26 50 37 42 nand $T=-90 -1034 0 0 $X=327 $Y=-806
XXB19A871F1029 5 4 14 32 16 51 38 42 nand $T=1526 472 0 180 $X=328 $Y=-346
XXB19A871F1030 5 6 24 16 27 52 38 43 nand $T=-90 -110 0 0 $X=327 $Y=118
.ends between_blocks
.subckt read_circuit 2 3 4 5 6 7 8 9 10 11 12
+	13 14 15 16
XXB19A871F1040 2 3 5 4 14 15 invx4 $T=-24 4 0 0 $X=0 $Y=4
XXB19A871F1041 2 3 8 7 14 15 inv $T=1512 4 0 0 $X=1512 $Y=4
XXB19A871F1042 2 3 7 5 6 16 14 15 nand $T=422 -224 0 0 $X=840 $Y=4
.ends read_circuit
.subckt buffer_highdrive 2 3 4 5 6 7 8 9
XXB19A871F1043 3 2 5 6 8 9 invx4 $T=-22 -2 0 0 $X=2 $Y=-2
XXB19A871F1044 3 2 4 5 8 9 invx4 $T=818 -2 0 0 $X=842 $Y=-2
.ends buffer_highdrive
.subckt buffer 2 3 4 5 6 7 8
XXB19A871F1045 2 3 5 4 7 8 inv $T=584 2 0 0 $X=584 $Y=2
XXB19A871F1046 2 3 4 6 7 8 inv $T=80 2 0 0 $X=80 $Y=2
.ends buffer
.subckt Demux 2 3 4 5 6 7 8 9 10 11 12
+	13 14
MM1 11 9 2 nmos  W=2.1e-08 L=1.5e-08 NFIN=2 ADEO=2.835e-16 ASEO=2.835e-16 PDEO=5.85e-08
+	 PSEO=5.85e-08 $X=1398 $Y=735  $PIN_XY=1428,672,1398,735,1368,672 $DEVICE_ID=1001
MM2 10 8 2 nmos  W=2.1e-08 L=1.5e-08 NFIN=2 ADEO=2.835e-16 ASEO=2.835e-16 PDEO=5.85e-08
+	 PSEO=5.85e-08 $X=1398 $Y=315  $PIN_XY=1428,378,1398,315,1368,378 $DEVICE_ID=1001
MM3 9 6 15 nmos  W=2.1e-08 L=1.5e-08 NFIN=2 ADEO=2.835e-16 ASEO=5.67e-16 PDEO=5.85e-08
+	 PSEO=1.17e-07 $X=894 $Y=735  $PIN_XY=924,672,894,735,864,672 $DEVICE_ID=1001
MM4 8 5 16 nmos  W=2.1e-08 L=1.5e-08 NFIN=2 ADEO=2.835e-16 ASEO=5.67e-16 PDEO=5.85e-08
+	 PSEO=1.17e-07 $X=894 $Y=315  $PIN_XY=924,378,894,315,864,378 $DEVICE_ID=1001
MM5 15 7 2 nmos  W=2.1e-08 L=1.5e-08 NFIN=2 ADEO=5.67e-16 ASEO=2.835e-16 PDEO=1.17e-07
+	 PSEO=5.85e-08 $X=726 $Y=735  $PIN_XY=756,672,726,735,696,672 $DEVICE_ID=1001
MM6 16 7 2 nmos  W=2.1e-08 L=1.5e-08 NFIN=2 ADEO=5.67e-16 ASEO=2.835e-16 PDEO=1.17e-07
+	 PSEO=5.85e-08 $X=726 $Y=315  $PIN_XY=756,378,726,315,696,378 $DEVICE_ID=1001
MM7 6 5 2 nmos  W=2.1e-08 L=1.5e-08 NFIN=2 ADEO=2.835e-16 ASEO=2.835e-16 PDEO=5.85e-08
+	 PSEO=5.85e-08 $X=222 $Y=756  $PIN_XY=252,672,222,756,192,672 $DEVICE_ID=1001
XXB19A871F1047 2 3 _GENERATED_17 2 12 13 sram_filler $T=616 588 0 180 $X=167 $Y=-2
XXB19A871F1048 2 3 3 _GENERATED_18 12 13 sram_filler $T=448 588 0 180 $X=0 $Y=-2
XXB19A871F1049 2 4 6 5 12 14 inv $T=0 462 0 0 $X=0 $Y=462
XXB19A871F1050 2 4 11 9 12 14 inv $T=1176 462 0 0 $X=1176 $Y=462
XXB19A871F1051 2 3 10 8 12 13 inv $T=1176 588 1 0 $X=1176 $Y=-2
XXB19A871F1052 2 4 9 7 6 15 12 14 nand $T=86 234 0 0 $X=504 $Y=462
XXB19A871F1053 2 3 8 7 5 16 12 13 nand $T=86 816 1 0 $X=504 $Y=-2
.ends Demux

* Hierarchy Level 1
.subckt static_row_decoder_3by8 2 3 4 5 6 7 8 9 10 11 12
+	13 14 15 16 17 18 26 27 28 31 32
+	34 51 52 53 54 55 56 57 58 59 60
+	61 62 63 64 65 66 67 68 69 70 71
+	72 73 74 75 88 112
*.floating_nets 107 108 109 110 111
MM1 16 90 57 nmos  W=2.1e-08 L=1.5e-08 NFIN=2 ADEO=2.835e-16 ASEO=5.67e-16 PDEO=5.85e-08
+	 PSEO=1.17e-07 $X=3730 $Y=884  $PIN_XY=3760,800,3730,884,3700,800 $DEVICE_ID=1001
MM2 11 91 58 nmos  W=2.1e-08 L=1.5e-08 NFIN=2 ADEO=2.835e-16 ASEO=5.67e-16 PDEO=5.85e-08
+	 PSEO=1.17e-07 $X=3730 $Y=-40  $PIN_XY=3760,-124,3730,-40,3700,-124 $DEVICE_ID=1001
MM3 10 87 54 nmos  W=2.1e-08 L=1.5e-08 NFIN=2 ADEO=2.835e-16 ASEO=5.67e-16 PDEO=5.85e-08
+	 PSEO=1.17e-07 $X=3730 $Y=-964  $PIN_XY=3760,-1048,3730,-964,3700,-1048 $DEVICE_ID=1001
MM4 13 86 53 nmos  W=2.1e-08 L=1.5e-08 NFIN=2 ADEO=2.835e-16 ASEO=5.67e-16 PDEO=5.85e-08
+	 PSEO=1.17e-07 $X=3730 $Y=-1888  $PIN_XY=3760,-1972,3730,-1888,3700,-1972 $DEVICE_ID=1001
MM5 5 84 51 nmos  W=2.1e-08 L=1.5e-08 NFIN=2 ADEO=2.835e-16 ASEO=5.67e-16 PDEO=5.85e-08
+	 PSEO=1.17e-07 $X=3730 $Y=-2812  $PIN_XY=3760,-2896,3730,-2812,3700,-2896 $DEVICE_ID=1001
MM6 8 89 56 nmos  W=2.1e-08 L=1.5e-08 NFIN=2 ADEO=2.835e-16 ASEO=5.67e-16 PDEO=5.85e-08
+	 PSEO=1.17e-07 $X=3730 $Y=-3736  $PIN_XY=3760,-3820,3730,-3736,3700,-3820 $DEVICE_ID=1001
MM7 3 85 52 nmos  W=2.1e-08 L=1.5e-08 NFIN=2 ADEO=2.835e-16 ASEO=5.67e-16 PDEO=5.85e-08
+	 PSEO=1.17e-07 $X=3730 $Y=-4660  $PIN_XY=3760,-4744,3730,-4660,3700,-4744 $DEVICE_ID=1001
MM8 57 90 16 nmos  W=2.1e-08 L=1.5e-08 NFIN=2 ADEO=5.67e-16 ASEO=2.835e-16 PDEO=1.17e-07
+	 PSEO=5.85e-08 $X=3562 $Y=884  $PIN_XY=3592,800,3562,884,3532,800 $DEVICE_ID=1001
MM9 58 91 11 nmos  W=2.1e-08 L=1.5e-08 NFIN=2 ADEO=5.67e-16 ASEO=2.835e-16 PDEO=1.17e-07
+	 PSEO=5.85e-08 $X=3562 $Y=-40  $PIN_XY=3592,-124,3562,-40,3532,-124 $DEVICE_ID=1001
MM10 54 87 10 nmos  W=2.1e-08 L=1.5e-08 NFIN=2 ADEO=5.67e-16 ASEO=2.835e-16 PDEO=1.17e-07
+	 PSEO=5.85e-08 $X=3562 $Y=-964  $PIN_XY=3592,-1048,3562,-964,3532,-1048 $DEVICE_ID=1001
MM11 53 86 13 nmos  W=2.1e-08 L=1.5e-08 NFIN=2 ADEO=5.67e-16 ASEO=2.835e-16 PDEO=1.17e-07
+	 PSEO=5.85e-08 $X=3562 $Y=-1888  $PIN_XY=3592,-1972,3562,-1888,3532,-1972 $DEVICE_ID=1001
MM12 51 84 5 nmos  W=2.1e-08 L=1.5e-08 NFIN=2 ADEO=5.67e-16 ASEO=2.835e-16 PDEO=1.17e-07
+	 PSEO=5.85e-08 $X=3562 $Y=-2812  $PIN_XY=3592,-2896,3562,-2812,3532,-2896 $DEVICE_ID=1001
MM13 56 89 8 nmos  W=2.1e-08 L=1.5e-08 NFIN=2 ADEO=5.67e-16 ASEO=2.835e-16 PDEO=1.17e-07
+	 PSEO=5.85e-08 $X=3562 $Y=-3736  $PIN_XY=3592,-3820,3562,-3736,3532,-3820 $DEVICE_ID=1001
MM14 52 85 3 nmos  W=2.1e-08 L=1.5e-08 NFIN=2 ADEO=5.67e-16 ASEO=2.835e-16 PDEO=1.17e-07
+	 PSEO=5.85e-08 $X=3562 $Y=-4660  $PIN_XY=3592,-4744,3562,-4660,3532,-4744 $DEVICE_ID=1001
MM15 15 50 25 nmos  W=2.1e-08 L=1.5e-08 NFIN=2 ADEO=2.835e-16 ASEO=5.67e-16 PDEO=5.85e-08
+	 PSEO=1.17e-07 $X=2890 $Y=1346  $PIN_XY=2920,1430,2890,1346,2860,1430 $DEVICE_ID=1001
MM16 16 25 90 nmos  W=2.1e-08 L=1.5e-08 NFIN=2 ADEO=2.835e-16 ASEO=5.67e-16 PDEO=5.85e-08
+	 PSEO=1.17e-07 $X=2890 $Y=884  $PIN_XY=2920,800,2890,884,2860,800 $DEVICE_ID=1001
MM17 16 49 24 nmos  W=2.1e-08 L=1.5e-08 NFIN=2 ADEO=2.835e-16 ASEO=5.67e-16 PDEO=5.85e-08
+	 PSEO=1.17e-07 $X=2890 $Y=422  $PIN_XY=2920,506,2890,422,2860,506 $DEVICE_ID=1001
MM18 11 24 91 nmos  W=2.1e-08 L=1.5e-08 NFIN=2 ADEO=2.835e-16 ASEO=5.67e-16 PDEO=5.85e-08
+	 PSEO=1.17e-07 $X=2890 $Y=-40  $PIN_XY=2920,-124,2890,-40,2860,-124 $DEVICE_ID=1001
MM19 11 48 23 nmos  W=2.1e-08 L=1.5e-08 NFIN=2 ADEO=2.835e-16 ASEO=5.67e-16 PDEO=5.85e-08
+	 PSEO=1.17e-07 $X=2890 $Y=-502  $PIN_XY=2920,-418,2890,-502,2860,-418 $DEVICE_ID=1001
MM20 10 23 87 nmos  W=2.1e-08 L=1.5e-08 NFIN=2 ADEO=2.835e-16 ASEO=5.67e-16 PDEO=5.85e-08
+	 PSEO=1.17e-07 $X=2890 $Y=-964  $PIN_XY=2920,-1048,2890,-964,2860,-1048 $DEVICE_ID=1001
MM21 10 47 22 nmos  W=2.1e-08 L=1.5e-08 NFIN=2 ADEO=2.835e-16 ASEO=5.67e-16 PDEO=5.85e-08