********************************************************************************
* Library          : group8
* Cell             : buffer_highdrive
* View             : schematic
* View Search List : hspice hspiceD schematic spice veriloga
* View Stop List   : hspice hspiceD
********************************************************************************
.subckt buffer_highdrive in out
xi17 net24 out invx4
xi16 in net24 invx4
.ends buffer_highdrive

